                                                                                
                                                                                
             -- CODE_ASTER -- VERSION : DÉVELOPPEMENT (unstable) --             
                                                                                
                     Version 12.0.23 modifiée le 23/10/2016                     
                     révision e1a371bf - branche 'default'                      
                         Copyright EDF R&D 1991 - 2017                          
                                                                                
                    Exécution du : Mon Feb 20 10:53:59 2017                     
                   Nom de la machine : mbgnktc2-OptiPlex-9010                   
                              Architecture : 64bit                              
                          Type de processeur : x86_64                           
                Système d'exploitation : Linux 3.13.0-85-generic                
                        Langue des messages : en (UTF-8)                        
                                                                                
                           Version de Python : 2.7.6                            
                            Version de NumPy : 1.8.2                            
                           Parallélisme MPI : inactif                           
                          Parallélisme OpenMP : actif                           
                        Nombre de processus utilisés : 1                        
                     Version de la librairie HDF5 : 1.8.10                      
                      Version de la librairie MED : 3.0.8                       
                     Version de la librairie MUMPS : 4.10.0                     
                    Version de la librairie SCOTCH : 5.1.10                     
                 Mémoire limite pour l'exécution : 13250.00 Mo                  
                    consommée par l'initialisation : 0.00 Mo                    
                  par les objets du jeu de commandes : 0.00 Mo                  
                reste pour l'allocation dynamique : 13052.34 Mo                 
                Taille limite des fichiers d'échange : 195.31 Go                
                                                                                
#
#--------------------------------------------------------------------------------
#
# CRACK_0
# Time 2.5e-05
#Crack advances                                                                  
 CRACK0      
  5.22591E+00
  5.22688E+00
  5.22785E+00

#
#--------------------------------------------------------------------------------
#
#ASTER 12.00.23 CONCEPT TAB_U CALCULE LE 20/02/2017 A 11:03:31 DE TYPE           
#TABLE_SDASTER                                                                   
 INTITULE         NOEUD    RESU     NOM_CHAM         NUME_ORDRE   INST         ABSC_CURV    COOR_X       COOR_Y       COOR_Z       DX           DY           DZ          
 DEPL             N4       EVOL_0   DEPL                        2  2.50000E-05  0.00000E+00 -1.00000E+01  9.69734E+01 -1.29735E+02  8.61398E-20  3.94767E-19 -2.68389E-19
 DEPL             N6       EVOL_0   DEPL                        2  2.50000E-05  2.00000E+01  1.00000E+01  9.69734E+01 -1.29735E+02 -3.62360E-20  4.21753E-19 -4.60864E-19
 DEPL             N7       EVOL_0   DEPL                        2  2.50000E-05  2.08536E+02 -1.00000E+01  8.21501E+01  5.71502E+01 -1.75663E-03 -1.62597E+00 -3.14038E+00
 DEPL             N8       EVOL_0   DEPL                        2  2.50000E-05  2.10404E+02 -1.00000E+01  8.33841E+01  5.85529E+01 -1.77199E-03 -1.65622E+00 -3.11617E+00
 DEPL             N9       EVOL_0   DEPL                        2  2.50000E-05  2.12272E+02 -1.00000E+01  8.46379E+01  5.99380E+01 -1.78454E-03 -1.68603E+00 -3.09165E+00
 DEPL             N10      EVOL_0   DEPL                        2  2.50000E-05  2.14141E+02 -1.00000E+01  8.59112E+01  6.13052E+01 -1.79332E-03 -1.71539E+00 -3.06683E+00
 DEPL             N11      EVOL_0   DEPL                        2  2.50000E-05  2.16009E+02 -1.00000E+01  8.72038E+01  6.26541E+01 -1.79766E-03 -1.74428E+00 -3.04172E+00
 DEPL             N12      EVOL_0   DEPL                        2  2.50000E-05  2.17877E+02 -1.00000E+01  8.85155E+01  6.39845E+01 -1.79773E-03 -1.77271E+00 -3.01631E+00
 DEPL             N13      EVOL_0   DEPL                        2  2.50000E-05  2.19745E+02 -1.00000E+01  8.98459E+01  6.52962E+01 -1.79345E-03 -1.80067E+00 -2.99062E+00
 DEPL             N14      EVOL_0   DEPL                        2  2.50000E-05  2.21614E+02 -1.00000E+01  9.11948E+01  6.65888E+01 -1.78489E-03 -1.82814E+00 -2.96464E+00
 DEPL             N15      EVOL_0   DEPL                        2  2.50000E-05  2.23482E+02 -1.00000E+01  9.25620E+01  6.78621E+01 -1.77244E-03 -1.85512E+00 -2.93838E+00
 DEPL             N16      EVOL_0   DEPL                        2  2.50000E-05  2.25350E+02 -1.00000E+01  9.39471E+01  6.91159E+01 -1.75557E-03 -1.88161E+00 -2.91184E+00
 DEPL             N17      EVOL_0   DEPL                        2  2.50000E-05  2.27219E+02 -1.00000E+01  9.53498E+01  7.03499E+01 -1.73465E-03 -1.90760E+00 -2.88504E+00
 DEPL             N18      EVOL_0   DEPL                        2  2.50000E-05  2.54577E+02  1.00000E+01  8.21501E+01  5.71502E+01  2.07099E-03 -1.62566E+00 -3.14075E+00
 DEPL             N19      EVOL_0   DEPL                        2  2.50000E-05  2.56445E+02  1.00000E+01  8.33841E+01  5.85529E+01  2.10289E-03 -1.65590E+00 -3.11654E+00
 DEPL             N20      EVOL_0   DEPL                        2  2.50000E-05  2.58313E+02  1.00000E+01  8.46379E+01  5.99380E+01  2.12897E-03 -1.68570E+00 -3.09202E+00
 DEPL             N21      EVOL_0   DEPL                        2  2.50000E-05  2.60181E+02  1.00000E+01  8.59112E+01  6.13052E+01  2.14782E-03 -1.71505E+00 -3.06720E+00
 DEPL             N22      EVOL_0   DEPL                        2  2.50000E-05  2.62050E+02  1.00000E+01  8.72038E+01  6.26541E+01  2.15862E-03 -1.74394E+00 -3.04208E+00
 DEPL             N23      EVOL_0   DEPL                        2  2.50000E-05  2.63918E+02  1.00000E+01  8.85155E+01  6.39845E+01  2.16129E-03 -1.77236E+00 -3.01667E+00
 DEPL             N24      EVOL_0   DEPL                        2  2.50000E-05  2.65786E+02  1.00000E+01  8.98459E+01  6.52962E+01  2.15544E-03 -1.80031E+00 -2.99096E+00
 DEPL             N25      EVOL_0   DEPL                        2  2.50000E-05  2.67655E+02  1.00000E+01  9.11948E+01  6.65888E+01  2.14142E-03 -1.82778E+00 -2.96498E+00
 DEPL             N26      EVOL_0   DEPL                        2  2.50000E-05  2.69523E+02  1.00000E+01  9.25620E+01  6.78621E+01  2.11981E-03 -1.85475E+00 -2.93871E+00
 DEPL             N27      EVOL_0   DEPL                        2  2.50000E-05  2.71391E+02  1.00000E+01  9.39471E+01  6.91159E+01  2.09019E-03 -1.88124E+00 -2.91217E+00
 DEPL             N28      EVOL_0   DEPL                        2  2.50000E-05  2.73259E+02  1.00000E+01  9.53498E+01  7.03499E+01  2.05329E-03 -1.90723E+00 -2.88536E+00
 DEPL             N51      EVOL_0   DEPL                        2  2.50000E-05  4.46717E+02 -1.00000E+01  2.67650E+02  7.03499E+01 -1.75662E-03 -2.21752E+00  5.57024E-03
 DEPL             N52      EVOL_0   DEPL                        2  2.50000E-05  4.48585E+02 -1.00000E+01  2.69053E+02  6.91159E+01 -1.77198E-03 -2.20208E+00  2.58514E-02
 DEPL             N53      EVOL_0   DEPL                        2  2.50000E-05  4.50453E+02 -1.00000E+01  2.70438E+02  6.78621E+01 -1.78453E-03 -2.18647E+00  4.58201E-02
 DEPL             N54      EVOL_0   DEPL                        2  2.50000E-05  4.52321E+02 -1.00000E+01  2.71805E+02  6.65888E+01 -1.79331E-03 -2.17070E+00  6.54643E-02
 DEPL             N55      EVOL_0   DEPL                        2  2.50000E-05  4.54190E+02 -1.00000E+01  2.73154E+02  6.52962E+01 -1.79766E-03 -2.15477E+00  8.47783E-02
 DEPL             N56      EVOL_0   DEPL                        2  2.50000E-05  4.56058E+02 -1.00000E+01  2.74485E+02  6.39845E+01 -1.79773E-03 -2.13867E+00  1.03756E-01
 DEPL             N57      EVOL_0   DEPL                        2  2.50000E-05  4.57926E+02 -1.00000E+01  2.75796E+02  6.26541E+01 -1.79345E-03 -2.12243E+00  1.22392E-01
 DEPL             N58      EVOL_0   DEPL                        2  2.50000E-05  4.59795E+02 -1.00000E+01  2.77089E+02  6.13052E+01 -1.78489E-03 -2.10604E+00  1.40680E-01
 DEPL             N59      EVOL_0   DEPL                        2  2.50000E-05  4.61663E+02 -1.00000E+01  2.78362E+02  5.99380E+01 -1.77244E-03 -2.08949E+00  1.58615E-01
 DEPL             N60      EVOL_0   DEPL                        2  2.50000E-05  4.63531E+02 -1.00000E+01  2.79616E+02  5.85529E+01 -1.75558E-03 -2.07279E+00  1.76198E-01
 DEPL             N61      EVOL_0   DEPL                        2  2.50000E-05  4.65399E+02 -1.00000E+01  2.80850E+02  5.71502E+01 -1.73466E-03 -2.05595E+00  1.93423E-01
 DEPL             N62      EVOL_0   DEPL                        2  2.50000E-05  4.92757E+02  1.00000E+01  2.67650E+02  7.03499E+01  2.07097E-03 -2.21790E+00  5.25603E-03
 DEPL             N63      EVOL_0   DEPL                        2  2.50000E-05  4.94626E+02  1.00000E+01  2.69053E+02  6.91159E+01  2.10288E-03 -2.20245E+00  2.55310E-02
 DEPL             N64      EVOL_0   DEPL                        2  2.50000E-05  4.96494E+02  1.00000E+01  2.70438E+02  6.78621E+01  2.12895E-03 -2.18684E+00  4.54929E-02
 DEPL             N65      EVOL_0   DEPL                        2  2.50000E-05  4.98362E+02  1.00000E+01  2.71805E+02  6.65888E+01  2.14781E-03 -2.17106E+00  6.51301E-02
 DEPL             N66      EVOL_0   DEPL                        2  2.50000E-05  5.00231E+02  1.00000E+01  2.73154E+02  6.52962E+01  2.15860E-03 -2.15513E+00  8.44369E-02
 DEPL             N67      EVOL_0   DEPL                        2  2.50000E-05  5.02099E+02  1.00000E+01  2.74485E+02  6.39845E+01  2.16128E-03 -2.13903E+00  1.03407E-01
 DEPL             N68      EVOL_0   DEPL                        2  2.50000E-05  5.03967E+02  1.00000E+01  2.75796E+02  6.26541E+01  2.15543E-03 -2.12278E+00  1.22036E-01
 DEPL             N69      EVOL_0   DEPL                        2  2.50000E-05  5.05835E+02  1.00000E+01  2.77089E+02  6.13052E+01  2.14141E-03 -2.10638E+00  1.40318E-01
 DEPL             N70      EVOL_0   DEPL                        2  2.50000E-05  5.07704E+02  1.00000E+01  2.78362E+02  5.99380E+01  2.11980E-03 -2.08983E+00  1.58248E-01
 DEPL             N71      EVOL_0   DEPL                        2  2.50000E-05  5.09572E+02  1.00000E+01  2.79616E+02  5.85529E+01  2.09018E-03 -2.07312E+00  1.75826E-01
 DEPL             N72      EVOL_0   DEPL                        2  2.50000E-05  5.11440E+02  1.00000E+01  2.80850E+02  5.71502E+01  2.05329E-03 -2.05627E+00  1.93049E-01
 DEPL             N95      EVOL_0   DEPL                        2  2.50000E-05  6.84897E+02 -1.00000E+01  2.80850E+02 -1.15150E+02 -1.75662E-03 -3.89442E-01  5.03367E-01
 DEPL             N96      EVOL_0   DEPL                        2  2.50000E-05  6.86766E+02 -1.00000E+01  2.79616E+02 -1.16553E+02 -1.77198E-03 -3.79127E-01  4.96692E-01
 DEPL             N97      EVOL_0   DEPL                        2  2.50000E-05  6.88634E+02 -1.00000E+01  2.78362E+02 -1.17938E+02 -1.78453E-03 -3.68999E-01  4.89990E-01
 DEPL             N98      EVOL_0   DEPL                        2  2.50000E-05  6.90502E+02 -1.00000E+01  2.77089E+02 -1.19305E+02 -1.79331E-03 -3.59068E-01  4.83264E-01
 DEPL             N99      EVOL_0   DEPL                        2  2.50000E-05  6.92370E+02 -1.00000E+01  2.75796E+02 -1.20654E+02 -1.79765E-03 -3.49337E-01  4.76514E-01
 DEPL             N100     EVOL_0   DEPL                        2  2.50000E-05  6.94239E+02 -1.00000E+01  2.74485E+02 -1.21985E+02 -1.79772E-03 -3.39812E-01  4.69743E-01
 DEPL             N101     EVOL_0   DEPL                        2  2.50000E-05  6.96107E+02 -1.00000E+01  2.73154E+02 -1.23296E+02 -1.79345E-03 -3.30495E-01  4.62951E-01
 DEPL             N102     EVOL_0   DEPL                        2  2.50000E-05  6.97975E+02 -1.00000E+01  2.71805E+02 -1.24589E+02 -1.78488E-03 -3.21390E-01  4.56140E-01
 DEPL             N103     EVOL_0   DEPL                        2  2.50000E-05  6.99844E+02 -1.00000E+01  2.70438E+02 -1.25862E+02 -1.77243E-03 -3.12502E-01  4.49307E-01
 DEPL             N104     EVOL_0   DEPL                        2  2.50000E-05  7.01712E+02 -1.00000E+01  2.69053E+02 -1.27116E+02 -1.75557E-03 -3.03826E-01  4.42452E-01
 DEPL             N105     EVOL_0   DEPL                        2  2.50000E-05  7.03580E+02 -1.00000E+01  2.67650E+02 -1.28350E+02 -1.73465E-03 -2.95367E-01  4.35576E-01
 DEPL             N106     EVOL_0   DEPL                        2  2.50000E-05  7.30938E+02  1.00000E+01  2.80850E+02 -1.15150E+02  2.07098E-03 -3.89757E-01  5.03743E-01
 DEPL             N107     EVOL_0   DEPL                        2  2.50000E-05  7.32806E+02  1.00000E+01  2.79616E+02 -1.16553E+02  2.10289E-03 -3.79448E-01  4.97066E-01
 DEPL             N108     EVOL_0   DEPL                        2  2.50000E-05  7.34675E+02  1.00000E+01  2.78362E+02 -1.17938E+02  2.12896E-03 -3.69326E-01  4.90360E-01
 DEPL             N109     EVOL_0   DEPL                        2  2.50000E-05  7.36543E+02  1.00000E+01  2.77089E+02 -1.19305E+02  2.14782E-03 -3.59402E-01  4.83630E-01
 DEPL             N110     EVOL_0   DEPL                        2  2.50000E-05  7.38411E+02  1.00000E+01  2.75796E+02 -1.20654E+02  2.15861E-03 -3.49679E-01  4.76875E-01
 DEPL             N111     EVOL_0   DEPL                        2  2.50000E-05  7.40280E+02  1.00000E+01  2.74485E+02 -1.21985E+02  2.16129E-03 -3.40161E-01  4.70097E-01
 DEPL             N112     EVOL_0   DEPL                        2  2.50000E-05  7.42148E+02  1.00000E+01  2.73154E+02 -1.23296E+02  2.15544E-03 -3.30850E-01  4.63299E-01
 DEPL             N113     EVOL_0   DEPL                        2  2.50000E-05  7.44016E+02  1.00000E+01  2.71805E+02 -1.24589E+02  2.14142E-03 -3.21752E-01  4.56482E-01
 DEPL             N114     EVOL_0   DEPL                        2  2.50000E-05  7.45884E+02  1.00000E+01  2.70438E+02 -1.25862E+02  2.11981E-03 -3.12868E-01  4.49642E-01
 DEPL             N115     EVOL_0   DEPL                        2  2.50000E-05  7.47753E+02  1.00000E+01  2.69053E+02 -1.27116E+02  2.09019E-03 -3.04197E-01  4.42779E-01
 DEPL             N116     EVOL_0   DEPL                        2  2.50000E-05  7.49621E+02  1.00000E+01  2.67650E+02 -1.28350E+02  2.05329E-03 -2.95741E-01  4.35897E-01
 DEPL             N142     EVOL_0   DEPL                        2  2.50000E-05  9.80007E+02 -1.00000E+01  5.17603E+01 -5.04446E+01 -2.38256E-03  8.23383E-01 -3.68130E+00
 DEPL             N144     EVOL_0   DEPL                        2  2.50000E-05  1.00001E+03  1.00000E+01  5.17603E+01 -5.04446E+01  2.14443E-03  8.23777E-01 -3.68197E+00
 DEPL             N304     EVOL_0   DEPL                        2  2.50000E-05  1.04733E+03 -1.00000E+01  5.17603E+01 -7.55543E+00 -2.13033E-03 -2.01275E-01 -3.74030E+00
 DEPL             N306     EVOL_0   DEPL                        2  2.50000E-05  1.06733E+03  1.00000E+01  5.17603E+01 -7.55543E+00  2.48165E-03 -2.00581E-01 -3.74029E+00
 DEPL             N307     EVOL_0   DEPL                        2  2.50000E-05  1.11369E+03 -1.00000E+01  5.15891E+01 -4.93812E+01 -2.38329E-03  7.96778E-01 -3.68686E+00
 DEPL             N308     EVOL_0   DEPL                        2  2.50000E-05  1.11477E+03 -1.00000E+01  5.14265E+01 -4.83165E+01 -2.39564E-03  7.70204E-01 -3.69223E+00
 DEPL             N309     EVOL_0   DEPL                        2  2.50000E-05  1.11585E+03 -1.00000E+01  5.12726E+01 -4.72506E+01 -2.40648E-03  7.43657E-01 -3.69738E+00
 DEPL             N310     EVOL_0   DEPL                        2  2.50000E-05  1.11692E+03 -1.00000E+01  5.11275E+01 -4.61833E+01 -2.41599E-03  7.17140E-01 -3.70232E+00
 DEPL             N311     EVOL_0   DEPL                        2  2.50000E-05  1.11800E+03 -1.00000E+01  5.09912E+01 -4.51150E+01 -2.42552E-03  6.90655E-01 -3.70705E+00
 DEPL             N312     EVOL_0   DEPL                        2  2.50000E-05  1.11908E+03 -1.00000E+01  5.08635E+01 -4.40455E+01 -2.43414E-03  6.64207E-01 -3.71158E+00
 DEPL             N313     EVOL_0   DEPL                        2  2.50000E-05  1.12015E+03 -1.00000E+01  5.07447E+01 -4.29751E+01 -2.44401E-03  6.37795E-01 -3.71590E+00
 DEPL             N314     EVOL_0   DEPL                        2  2.50000E-05  1.12123E+03 -1.00000E+01  5.06346E+01 -4.19037E+01 -2.45353E-03  6.11421E-01 -3.72001E+00
 DEPL             N315     EVOL_0   DEPL                        2  2.50000E-05  1.12231E+03 -1.00000E+01  5.05333E+01 -4.08314E+01 -2.46472E-03  5.85087E-01 -3.72391E+00
 DEPL             N316     EVOL_0   DEPL                        2  2.50000E-05  1.12339E+03 -1.00000E+01  5.04408E+01 -3.97584E+01 -2.47341E-03  5.58800E-01 -3.72760E+00
 DEPL             N317     EVOL_0   DEPL                        2  2.50000E-05  1.12446E+03 -1.00000E+01  5.03571E+01 -3.86846E+01 -2.47954E-03  5.32560E-01 -3.73109E+00
 DEPL             N318     EVOL_0   DEPL                        2  2.50000E-05  1.12554E+03 -1.00000E+01  5.02822E+01 -3.76101E+01 -2.48547E-03  5.06367E-01 -3.73436E+00
 DEPL             N319     EVOL_0   DEPL                        2  2.50000E-05  1.12662E+03 -1.00000E+01  5.02161E+01 -3.65351E+01 -2.48671E-03  4.80228E-01 -3.73742E+00
 DEPL             N320     EVOL_0   DEPL                        2  2.50000E-05  1.12769E+03 -1.00000E+01  5.01588E+01 -3.54596E+01 -2.48337E-03  4.54148E-01 -3.74027E+00
 DEPL             N321     EVOL_0   DEPL                        2  2.50000E-05  1.12877E+03 -1.00000E+01  5.01103E+01 -3.43837E+01 -2.47960E-03  4.28122E-01 -3.74289E+00
 DEPL             N322     EVOL_0   DEPL                        2  2.50000E-05  1.12985E+03 -1.00000E+01  5.00706E+01 -3.33074E+01 -2.47473E-03  4.02148E-01 -3.74532E+00
 DEPL             N323     EVOL_0   DEPL                        2  2.50000E-05  1.13092E+03 -1.00000E+01  5.00397E+01 -3.22308E+01 -2.46650E-03  3.76226E-01 -3.74753E+00
 DEPL             N324     EVOL_0   DEPL                        2  2.50000E-05  1.13200E+03 -1.00000E+01  5.00176E+01 -3.11540E+01 -2.45655E-03  3.50358E-01 -3.74953E+00
 DEPL             N325     EVOL_0   DEPL                        2  2.50000E-05  1.13308E+03 -1.00000E+01  5.00044E+01 -3.00770E+01 -2.44869E-03  3.24546E-01 -3.75132E+00
 DEPL             N326     EVOL_0   DEPL                        2  2.50000E-05  1.13416E+03 -1.00000E+01  5.00000E+01 -2.90000E+01 -2.44432E-03  2.98796E-01 -3.75291E+00
 DEPL             N327     EVOL_0   DEPL                        2  2.50000E-05  1.13523E+03 -1.00000E+01  5.00044E+01 -2.79230E+01 -2.44160E-03  2.73108E-01 -3.75428E+00
 DEPL             N328     EVOL_0   DEPL                        2  2.50000E-05  1.13631E+03 -1.00000E+01  5.00176E+01 -2.68460E+01 -2.43806E-03  2.47481E-01 -3.75543E+00
 DEPL             N329     EVOL_0   DEPL                        2  2.50000E-05  1.13739E+03 -1.00000E+01  5.00397E+01 -2.57692E+01 -2.43229E-03  2.21919E-01 -3.75638E+00
 DEPL             N330     EVOL_0   DEPL                        2  2.50000E-05  1.13846E+03 -1.00000E+01  5.00706E+01 -2.46926E+01 -2.42393E-03  1.96426E-01 -3.75711E+00
 DEPL             N331     EVOL_0   DEPL                        2  2.50000E-05  1.13954E+03 -1.00000E+01  5.01103E+01 -2.36163E+01 -2.41326E-03  1.71002E-01 -3.75764E+00
 DEPL             N332     EVOL_0   DEPL                        2  2.50000E-05  1.14062E+03 -1.00000E+01  5.01588E+01 -2.25404E+01 -2.40085E-03  1.45647E-01 -3.75796E+00
 DEPL             N333     EVOL_0   DEPL                        2  2.50000E-05  1.14169E+03 -1.00000E+01  5.02161E+01 -2.14649E+01 -2.38716E-03  1.20364E-01 -3.75807E+00
 DEPL             N334     EVOL_0   DEPL                        2  2.50000E-05  1.14277E+03 -1.00000E+01  5.02822E+01 -2.03899E+01 -2.37244E-03  9.51547E-02 -3.75796E+00
 DEPL             N335     EVOL_0   DEPL                        2  2.50000E-05  1.14385E+03 -1.00000E+01  5.03571E+01 -1.93154E+01 -2.35685E-03  7.00187E-02 -3.75764E+00
 DEPL             N336     EVOL_0   DEPL                        2  2.50000E-05  1.14493E+03 -1.00000E+01  5.04408E+01 -1.82416E+01 -2.34053E-03  4.49563E-02 -3.75711E+00
 DEPL             N337     EVOL_0   DEPL                        2  2.50000E-05  1.14600E+03 -1.00000E+01  5.05333E+01 -1.71686E+01 -2.32378E-03  1.99696E-02 -3.75638E+00
 DEPL             N338     EVOL_0   DEPL                        2  2.50000E-05  1.14708E+03 -1.00000E+01  5.06346E+01 -1.60963E+01 -2.30673E-03 -4.93920E-03 -3.75544E+00
 DEPL             N339     EVOL_0   DEPL                        2  2.50000E-05  1.14816E+03 -1.00000E+01  5.07447E+01 -1.50249E+01 -2.28911E-03 -2.97693E-02 -3.75429E+00
 DEPL             N340     EVOL_0   DEPL                        2  2.50000E-05  1.14923E+03 -1.00000E+01  5.08635E+01 -1.39545E+01 -2.27053E-03 -5.45183E-02 -3.75292E+00
 DEPL             N341     EVOL_0   DEPL                        2  2.50000E-05  1.15031E+03 -1.00000E+01  5.09912E+01 -1.28850E+01 -2.25075E-03 -7.91843E-02 -3.75134E+00
 DEPL             N342     EVOL_0   DEPL                        2  2.50000E-05  1.15139E+03 -1.00000E+01  5.11275E+01 -1.18167E+01 -2.22955E-03 -1.03769E-01 -3.74955E+00
 DEPL             N343     EVOL_0   DEPL                        2  2.50000E-05  1.15247E+03 -1.00000E+01  5.12726E+01 -1.07494E+01 -2.20688E-03 -1.28272E-01 -3.74755E+00
 DEPL             N344     EVOL_0   DEPL                        2  2.50000E-05  1.15354E+03 -1.00000E+01  5.14265E+01 -9.68345E+00 -2.18287E-03 -1.52692E-01 -3.74534E+00
 DEPL             N345     EVOL_0   DEPL                        2  2.50000E-05  1.15462E+03 -1.00000E+01  5.15891E+01 -8.61876E+00 -2.15726E-03 -1.77025E-01 -3.74292E+00
 DEPL             N346     EVOL_0   DEPL                        2  2.50000E-05  1.20002E+03  1.00000E+01  5.15891E+01 -4.93812E+01  2.23361E-03  7.97264E-01 -3.68753E+00
 DEPL             N347     EVOL_0   DEPL                        2  2.50000E-05  1.20110E+03  1.00000E+01  5.14265E+01 -4.83165E+01  2.30459E-03  7.70759E-01 -3.69289E+00
 DEPL             N348     EVOL_0   DEPL                        2  2.50000E-05  1.20218E+03  1.00000E+01  5.12726E+01 -4.72506E+01  2.37209E-03  7.44270E-01 -3.69803E+00
 DEPL             N349     EVOL_0   DEPL                        2  2.50000E-05  1.20326E+03  1.00000E+01  5.11275E+01 -4.61833E+01  2.43552E-03  7.17799E-01 -3.70295E+00
 DEPL             N350     EVOL_0   DEPL                        2  2.50000E-05  1.20433E+03  1.00000E+01  5.09912E+01 -4.51150E+01  2.49508E-03  6.91355E-01 -3.70767E+00
 DEPL             N351     EVOL_0   DEPL                        2  2.50000E-05  1.20541E+03  1.00000E+01  5.08635E+01 -4.40455E+01  2.55111E-03  6.64941E-01 -3.71218E+00
 DEPL             N352     EVOL_0   DEPL                        2  2.50000E-05  1.20649E+03  1.00000E+01  5.07447E+01 -4.29751E+01  2.60273E-03  6.38560E-01 -3.71647E+00
 DEPL             N353     EVOL_0   DEPL                        2  2.50000E-05  1.20756E+03  1.00000E+01  5.06346E+01 -4.19037E+01  2.65068E-03  6.12211E-01 -3.72055E+00
 DEPL             N354     EVOL_0   DEPL                        2  2.50000E-05  1.20864E+03  1.00000E+01  5.05333E+01 -4.08314E+01  2.69262E-03  5.85900E-01 -3.72442E+00
 DEPL             N355     EVOL_0   DEPL                        2  2.50000E-05  1.20972E+03  1.00000E+01  5.04408E+01 -3.97584E+01  2.73326E-03  5.59629E-01 -3.72807E+00
 DEPL             N356     EVOL_0   DEPL                        2  2.50000E-05  1.21079E+03  1.00000E+01  5.03571E+01 -3.86846E+01  2.77138E-03  5.33402E-01 -3.73151E+00
 DEPL             N357     EVOL_0   DEPL                        2  2.50000E-05  1.21187E+03  1.00000E+01  5.02822E+01 -3.76101E+01  2.80450E-03  5.07217E-01 -3.73474E+00
 DEPL             N358     EVOL_0   DEPL                        2  2.50000E-05  1.21295E+03  1.00000E+01  5.02161E+01 -3.65351E+01  2.83764E-03  4.81074E-01 -3.73775E+00
 DEPL             N359     EVOL_0   DEPL                        2  2.50000E-05  1.21403E+03  1.00000E+01  5.01588E+01 -3.54596E+01  2.86941E-03  4.54977E-01 -3.74055E+00
 DEPL             N360     EVOL_0   DEPL                        2  2.50000E-05  1.21510E+03  1.00000E+01  5.01103E+01 -3.43837E+01  2.89358E-03  4.28931E-01 -3.74314E+00
 DEPL             N361     EVOL_0   DEPL                        2  2.50000E-05  1.21618E+03  1.00000E+01  5.00706E+01 -3.33074E+01  2.91189E-03  4.02941E-01 -3.74553E+00
 DEPL             N362     EVOL_0   DEPL                        2  2.50000E-05  1.21726E+03  1.00000E+01  5.00397E+01 -3.22308E+01  2.92891E-03  3.77010E-01 -3.74772E+00
 DEPL             N363     EVOL_0   DEPL                        2  2.50000E-05  1.21833E+03  1.00000E+01  5.00176E+01 -3.11540E+01  2.94314E-03  3.51136E-01 -3.74969E+00
 DEPL             N364     EVOL_0   DEPL                        2  2.50000E-05  1.21941E+03  1.00000E+01  5.00044E+01 -3.00770E+01  2.95052E-03  3.25323E-01 -3.75145E+00
 DEPL             N365     EVOL_0   DEPL                        2  2.50000E-05  1.22049E+03  1.00000E+01  5.00000E+01 -2.90000E+01  2.94986E-03  2.99574E-01 -3.75301E+00
 DEPL             N366     EVOL_0   DEPL                        2  2.50000E-05  1.22156E+03  1.00000E+01  5.00044E+01 -2.79230E+01  2.94275E-03  2.73887E-01 -3.75435E+00
 DEPL             N367     EVOL_0   DEPL                        2  2.50000E-05  1.22264E+03  1.00000E+01  5.00176E+01 -2.68460E+01  2.93151E-03  2.48261E-01 -3.75549E+00
 DEPL             N368     EVOL_0   DEPL                        2  2.50000E-05  1.22372E+03  1.00000E+01  5.00397E+01 -2.57692E+01  2.91788E-03  2.22700E-01 -3.75642E+00
 DEPL             N369     EVOL_0   DEPL                        2  2.50000E-05  1.22480E+03  1.00000E+01  5.00706E+01 -2.46926E+01  2.90277E-03  1.97208E-01 -3.75713E+00
 DEPL             N370     EVOL_0   DEPL                        2  2.50000E-05  1.22587E+03  1.00000E+01  5.01103E+01 -2.36163E+01  2.88656E-03  1.71783E-01 -3.75765E+00
 DEPL             N371     EVOL_0   DEPL                        2  2.50000E-05  1.22695E+03  1.00000E+01  5.01588E+01 -2.25404E+01  2.86940E-03  1.46427E-01 -3.75796E+00
 DEPL             N372     EVOL_0   DEPL                        2  2.50000E-05  1.22803E+03  1.00000E+01  5.02161E+01 -2.14649E+01  2.85124E-03  1.21142E-01 -3.75806E+00
 DEPL             N373     EVOL_0   DEPL                        2  2.50000E-05  1.22910E+03  1.00000E+01  5.02822E+01 -2.03899E+01  2.83189E-03  9.59287E-02 -3.75795E+00
 DEPL             N374     EVOL_0   DEPL                        2  2.50000E-05  1.23018E+03  1.00000E+01  5.03571E+01 -1.93154E+01  2.81125E-03  7.07883E-02 -3.75763E+00
 DEPL             N375     EVOL_0   DEPL                        2  2.50000E-05  1.23126E+03  1.00000E+01  5.04408E+01 -1.82416E+01  2.78933E-03  4.57210E-02 -3.75711E+00
 DEPL             N376     EVOL_0   DEPL                        2  2.50000E-05  1.23233E+03  1.00000E+01  5.05333E+01 -1.71686E+01  2.76629E-03  2.07289E-02 -3.75638E+00
 DEPL             N377     EVOL_0   DEPL                        2  2.50000E-05  1.23341E+03  1.00000E+01  5.06346E+01 -1.60963E+01  2.74222E-03 -4.18580E-03 -3.75543E+00
 DEPL             N378     EVOL_0   DEPL                        2  2.50000E-05  1.23449E+03  1.00000E+01  5.07447E+01 -1.50249E+01  2.71684E-03 -2.90222E-02 -3.75428E+00
 DEPL             N379     EVOL_0   DEPL                        2  2.50000E-05  1.23557E+03  1.00000E+01  5.08635E+01 -1.39545E+01  2.68969E-03 -5.37778E-02 -3.75291E+00
 DEPL             N380     EVOL_0   DEPL                        2  2.50000E-05  1.23664E+03  1.00000E+01  5.09912E+01 -1.28850E+01  2.66052E-03 -7.84508E-02 -3.75133E+00
 DEPL             N381     EVOL_0   DEPL                        2  2.50000E-05  1.23772E+03  1.00000E+01  5.11275E+01 -1.18167E+01  2.62912E-03 -1.03043E-01 -3.74953E+00
 DEPL             N382     EVOL_0   DEPL                        2  2.50000E-05  1.23880E+03  1.00000E+01  5.12726E+01 -1.07494E+01  2.59549E-03 -1.27554E-01 -3.74754E+00
 DEPL             N383     EVOL_0   DEPL                        2  2.50000E-05  1.23987E+03  1.00000E+01  5.14265E+01 -9.68345E+00  2.55978E-03 -1.51981E-01 -3.74533E+00
 DEPL             N384     EVOL_0   DEPL                        2  2.50000E-05  1.24095E+03  1.00000E+01  5.15891E+01 -8.61876E+00  2.52173E-03 -1.76323E-01 -3.74291E+00
 DEPL             N628     EVOL_0   DEPL                        2  2.50000E-05  1.30403E+03 -1.00000E+01  5.60033E+01 -6.82787E+01 -1.43517E-03  1.27617E+00 -3.55592E+00
 DEPL             N630     EVOL_0   DEPL                        2  2.50000E-05  1.32403E+03  1.00000E+01  5.60033E+01 -6.82787E+01  1.68972E-03  1.27579E+00 -3.55566E+00
 DEPL             N871     EVOL_0   DEPL                        2  2.50000E-05  1.40509E+03 -1.00000E+01  5.60033E+01  1.02787E+01 -1.56658E-03 -6.01232E-01 -3.66404E+00
 DEPL             N873     EVOL_0   DEPL                        2  2.50000E-05  1.42509E+03  1.00000E+01  5.60033E+01  1.02787E+01  1.63943E-03 -6.00707E-01 -3.66407E+00
 DEPL             N1192    EVOL_0   DEPL                        2  2.50000E-05  1.55292E+03 -1.00000E+01  8.07652E+01 -1.13527E+02 -2.64660E-03  2.44571E+00 -2.85531E+00
 DEPL             N1194    EVOL_0   DEPL                        2  2.50000E-05  1.57292E+03  1.00000E+01  8.07652E+01 -1.13527E+02  4.36712E-03  2.44480E+00 -2.85618E+00
 DEPL             N1273    EVOL_0   DEPL                        2  2.50000E-05  1.59297E+03 -1.00000E+01  7.99358E+01 -1.12528E+02 -2.60148E-03  2.41868E+00 -2.88709E+00
 DEPL             N1274    EVOL_0   DEPL                        2  2.50000E-05  1.59426E+03 -1.00000E+01  7.91163E+01 -1.11522E+02 -2.52373E-03  2.39325E+00 -2.91470E+00
 DEPL             N1275    EVOL_0   DEPL                        2  2.50000E-05  1.59556E+03 -1.00000E+01  7.83068E+01 -1.10507E+02 -2.38126E-03  2.36747E+00 -2.93966E+00
 DEPL             N1276    EVOL_0   DEPL                        2  2.50000E-05  1.59686E+03 -1.00000E+01  7.75074E+01 -1.09485E+02 -2.22054E-03  2.34146E+00 -2.96305E+00
 DEPL             N1277    EVOL_0   DEPL                        2  2.50000E-05  1.59816E+03 -1.00000E+01  7.67181E+01 -1.08454E+02 -2.07310E-03  2.31508E+00 -2.98570E+00
 DEPL             N1278    EVOL_0   DEPL                        2  2.50000E-05  1.59946E+03 -1.00000E+01  7.59390E+01 -1.07416E+02 -1.92683E-03  2.28853E+00 -3.00787E+00
 DEPL             N1279    EVOL_0   DEPL                        2  2.50000E-05  1.60075E+03 -1.00000E+01  7.51701E+01 -1.06371E+02 -1.78360E-03  2.26152E+00 -3.02942E+00
 DEPL             N1280    EVOL_0   DEPL                        2  2.50000E-05  1.60205E+03 -1.00000E+01  7.44117E+01 -1.05317E+02 -1.66469E-03  2.23433E+00 -3.05041E+00
 DEPL             N1281    EVOL_0   DEPL                        2  2.50000E-05  1.60335E+03 -1.00000E+01  7.36636E+01 -1.04257E+02 -1.55849E-03  2.20721E+00 -3.07098E+00
 DEPL             N1282    EVOL_0   DEPL                        2  2.50000E-05  1.60465E+03 -1.00000E+01  7.29261E+01 -1.03189E+02 -1.42174E-03  2.17944E+00 -3.09144E+00
 DEPL             N1283    EVOL_0   DEPL                        2  2.50000E-05  1.60595E+03 -1.00000E+01  7.21992E+01 -1.02113E+02 -1.35064E-03  2.15172E+00 -3.11138E+00
 DEPL             N1284    EVOL_0   DEPL                        2  2.50000E-05  1.60724E+03 -1.00000E+01  7.14829E+01 -1.01031E+02 -1.38328E-03  2.12383E+00 -3.13061E+00
 DEPL             N1285    EVOL_0   DEPL                        2  2.50000E-05  1.60854E+03 -1.00000E+01  7.07773E+01 -9.99417E+01 -1.36893E-03  2.09527E+00 -3.14986E+00
 DEPL             N1286    EVOL_0   DEPL                        2  2.50000E-05  1.60984E+03 -1.00000E+01  7.00825E+01 -9.88454E+01 -1.24281E-03  2.06667E+00 -3.16915E+00
 DEPL             N1287    EVOL_0   DEPL                        2  2.50000E-05  1.61114E+03 -1.00000E+01  6.93985E+01 -9.77424E+01 -1.10047E-03  2.03830E+00 -3.18789E+00
 DEPL             N1288    EVOL_0   DEPL                        2  2.50000E-05  1.61243E+03 -1.00000E+01  6.87255E+01 -9.66326E+01 -1.02481E-03  2.00982E+00 -3.20612E+00
 DEPL             N1289    EVOL_0   DEPL                        2  2.50000E-05  1.61373E+03 -1.00000E+01  6.80635E+01 -9.55162E+01 -1.01980E-03  1.98101E+00 -3.22409E+00
 DEPL             N1290    EVOL_0   DEPL                        2  2.50000E-05  1.61503E+03 -1.00000E+01  6.74125E+01 -9.43934E+01 -1.05020E-03  1.95186E+00 -3.24171E+00
 DEPL             N1291    EVOL_0   DEPL                        2  2.50000E-05  1.61633E+03 -1.00000E+01  6.67726E+01 -9.32641E+01 -1.08217E-03  1.92248E+00 -3.25899E+00
 DEPL             N1292    EVOL_0   DEPL                        2  2.50000E-05  1.61763E+03 -1.00000E+01  6.61439E+01 -9.21286E+01 -1.10394E-03  1.89298E+00 -3.27611E+00
 DEPL             N1293    EVOL_0   DEPL                        2  2.50000E-05  1.61892E+03 -1.00000E+01  6.55265E+01 -9.09870E+01 -1.11867E-03  1.86334E+00 -3.29298E+00
 DEPL             N1294    EVOL_0   DEPL                        2  2.50000E-05  1.62022E+03 -1.00000E+01  6.49203E+01 -8.98393E+01 -1.12688E-03  1.83350E+00 -3.30945E+00
 DEPL             N1295    EVOL_0   DEPL                        2  2.50000E-05  1.62152E+03 -1.00000E+01  6.43255E+01 -8.86857E+01 -1.12518E-03  1.80351E+00 -3.32555E+00
 DEPL             N1296    EVOL_0   DEPL                        2  2.50000E-05  1.62282E+03 -1.00000E+01  6.37421E+01 -8.75263E+01 -1.11536E-03  1.77341E+00 -3.34143E+00
 DEPL             N1297    EVOL_0   DEPL                        2  2.50000E-05  1.62412E+03 -1.00000E+01  6.31702E+01 -8.63612E+01 -1.10551E-03  1.74318E+00 -3.35712E+00
 DEPL             N1298    EVOL_0   DEPL                        2  2.50000E-05  1.62541E+03 -1.00000E+01  6.26098E+01 -8.51905E+01 -1.10448E-03  1.71282E+00 -3.37256E+00
 DEPL             N1299    EVOL_0   DEPL                        2  2.50000E-05  1.62671E+03 -1.00000E+01  6.20610E+01 -8.40143E+01 -1.11639E-03  1.68232E+00 -3.38767E+00
 DEPL             N1300    EVOL_0   DEPL                        2  2.50000E-05  1.62801E+03 -1.00000E+01  6.15238E+01 -8.28328E+01 -1.13727E-03  1.65167E+00 -3.40243E+00
 DEPL             N1301    EVOL_0   DEPL                        2  2.50000E-05  1.62931E+03 -1.00000E+01  6.09984E+01 -8.16460E+01 -1.15767E-03  1.62089E+00 -3.41685E+00
 DEPL             N1302    EVOL_0   DEPL                        2  2.50000E-05  1.63061E+03 -1.00000E+01  6.04846E+01 -8.04541E+01 -1.17364E-03  1.59001E+00 -3.43095E+00
 DEPL             N1303    EVOL_0   DEPL                        2  2.50000E-05  1.63190E+03 -1.00000E+01  5.99827E+01 -7.92572E+01 -1.18889E-03  1.55902E+00 -3.44475E+00
 DEPL             N1304    EVOL_0   DEPL                        2  2.50000E-05  1.63320E+03 -1.00000E+01  5.94925E+01 -7.80554E+01 -1.20323E-03  1.52793E+00 -3.45828E+00
 DEPL             N1305    EVOL_0   DEPL                        2  2.50000E-05  1.63450E+03 -1.00000E+01  5.90143E+01 -7.68488E+01 -1.21651E-03  1.49675E+00 -3.47150E+00
 DEPL             N1306    EVOL_0   DEPL                        2  2.50000E-05  1.63580E+03 -1.00000E+01  5.85480E+01 -7.56375E+01 -1.23327E-03  1.46547E+00 -3.48444E+00
 DEPL             N1307    EVOL_0   DEPL                        2  2.50000E-05  1.63710E+03 -1.00000E+01  5.80937E+01 -7.44217E+01 -1.25152E-03  1.43411E+00 -3.49710E+00
 DEPL             N1308    EVOL_0   DEPL                        2  2.50000E-05  1.63839E+03 -1.00000E+01  5.76514E+01 -7.32015E+01 -1.27517E-03  1.40266E+00 -3.50946E+00
 DEPL             N1309    EVOL_0   DEPL                        2  2.50000E-05  1.63969E+03 -1.00000E+01  5.72212E+01 -7.19770E+01 -1.30443E-03  1.37114E+00 -3.52152E+00
 DEPL             N1310    EVOL_0   DEPL                        2  2.50000E-05  1.64099E+03 -1.00000E+01  5.68030E+01 -7.07482E+01 -1.33851E-03  1.33955E+00 -3.53329E+00
 DEPL             N1311    EVOL_0   DEPL                        2  2.50000E-05  1.64229E+03 -1.00000E+01  5.63971E+01 -6.95155E+01 -1.38314E-03  1.30789E+00 -3.54476E+00
 DEPL             N1312    EVOL_0   DEPL                        2  2.50000E-05  1.69524E+03  1.00000E+01  7.99358E+01 -1.12528E+02  4.34684E-03  2.41778E+00 -2.88794E+00
 DEPL             N1313    EVOL_0   DEPL                        2  2.50000E-05  1.69654E+03  1.00000E+01  7.91163E+01 -1.11522E+02  4.24046E-03  2.39239E+00 -2.91549E+00
 DEPL             N1314    EVOL_0   DEPL                        2  2.50000E-05  1.69784E+03  1.00000E+01  7.83068E+01 -1.10507E+02  4.03452E-03  2.36667E+00 -2.94036E+00
 DEPL             N1315    EVOL_0   DEPL                        2  2.50000E-05  1.69913E+03  1.00000E+01  7.75074E+01 -1.09485E+02  3.77869E-03  2.34073E+00 -2.96366E+00
 DEPL             N1316    EVOL_0   DEPL                        2  2.50000E-05  1.70043E+03  1.00000E+01  7.67181E+01 -1.08454E+02  3.52381E-03  2.31442E+00 -2.98622E+00
 DEPL             N1317    EVOL_0   DEPL                        2  2.50000E-05  1.70173E+03  1.00000E+01  7.59390E+01 -1.07416E+02  3.25894E-03  2.28794E+00 -3.00830E+00
 DEPL             N1318    EVOL_0   DEPL                        2  2.50000E-05  1.70303E+03  1.00000E+01  7.51701E+01 -1.06371E+02  2.98845E-03  2.26101E+00 -3.02977E+00
 DEPL             N1319    EVOL_0   DEPL                        2  2.50000E-05  1.70433E+03  1.00000E+01  7.44117E+01 -1.05317E+02  2.74208E-03  2.23389E+00 -3.05068E+00
 DEPL             N1320    EVOL_0   DEPL                        2  2.50000E-05  1.70562E+03  1.00000E+01  7.36636E+01 -1.04257E+02  2.48622E-03  2.20684E+00 -3.07121E+00
 DEPL             N1321    EVOL_0   DEPL                        2  2.50000E-05  1.70692E+03  1.00000E+01  7.29261E+01 -1.03189E+02  2.20052E-03  2.17916E+00 -3.09161E+00
 DEPL             N1322    EVOL_0   DEPL                        2  2.50000E-05  1.70822E+03  1.00000E+01  7.21992E+01 -1.02113E+02  1.99293E-03  2.15155E+00 -3.11148E+00
 DEPL             N1323    EVOL_0   DEPL                        2  2.50000E-05  1.70952E+03  1.00000E+01  7.14829E+01 -1.01031E+02  1.88569E-03  2.12375E+00 -3.13062E+00
 DEPL             N1324    EVOL_0   DEPL                        2  2.50000E-05  1.71082E+03  1.00000E+01  7.07773E+01 -9.99417E+01  1.74985E-03  2.09527E+00 -3.14978E+00
 DEPL             N1325    EVOL_0   DEPL                        2  2.50000E-05  1.71211E+03  1.00000E+01  7.00825E+01 -9.88454E+01  1.54922E-03  2.06672E+00 -3.16900E+00
 DEPL             N1326    EVOL_0   DEPL                        2  2.50000E-05  1.71341E+03  1.00000E+01  6.93985E+01 -9.77424E+01  1.36215E-03  2.03838E+00 -3.18766E+00
 DEPL             N1327    EVOL_0   DEPL                        2  2.50000E-05  1.71471E+03  1.00000E+01  6.87255E+01 -9.66326E+01  1.23320E-03  2.00993E+00 -3.20582E+00
 DEPL             N1328    EVOL_0   DEPL                        2  2.50000E-05  1.71601E+03  1.00000E+01  6.80635E+01 -9.55162E+01  1.15055E-03  1.98114E+00 -3.22372E+00
 DEPL             N1329    EVOL_0   DEPL                        2  2.50000E-05  1.71731E+03  1.00000E+01  6.74125E+01 -9.43934E+01  1.09044E-03  1.95200E+00 -3.24128E+00
 DEPL             N1330    EVOL_0   DEPL                        2  2.50000E-05  1.71860E+03  1.00000E+01  6.67726E+01 -9.32641E+01  1.03819E-03  1.92265E+00 -3.25853E+00
 DEPL             N1331    EVOL_0   DEPL                        2  2.50000E-05  1.71990E+03  1.00000E+01  6.61439E+01 -9.21286E+01  9.94419E-04  1.89317E+00 -3.27564E+00
 DEPL             N1332    EVOL_0   DEPL                        2  2.50000E-05  1.72120E+03  1.00000E+01  6.55265E+01 -9.09870E+01  9.65803E-04  1.86355E+00 -3.29253E+00
 DEPL             N1333    EVOL_0   DEPL                        2  2.50000E-05  1.72250E+03  1.00000E+01  6.49203E+01 -8.98393E+01  9.51241E-04  1.83374E+00 -3.30903E+00
 DEPL             N1334    EVOL_0   DEPL                        2  2.50000E-05  1.72380E+03  1.00000E+01  6.43255E+01 -8.86857E+01  9.44718E-04  1.80377E+00 -3.32516E+00
 DEPL             N1335    EVOL_0   DEPL                        2  2.50000E-05  1.72509E+03  1.00000E+01  6.37421E+01 -8.75263E+01  9.45852E-04  1.77368E+00 -3.34108E+00
 DEPL             N1336    EVOL_0   DEPL                        2  2.50000E-05  1.72639E+03  1.00000E+01  6.31702E+01 -8.63612E+01  9.59634E-04  1.74347E+00 -3.35680E+00
 DEPL             N1337    EVOL_0   DEPL                        2  2.50000E-05  1.72769E+03  1.00000E+01  6.26098E+01 -8.51905E+01  9.88154E-04  1.71312E+00 -3.37226E+00
 DEPL             N1338    EVOL_0   DEPL                        2  2.50000E-05  1.72899E+03  1.00000E+01  6.20610E+01 -8.40143E+01  1.02760E-03  1.68261E+00 -3.38739E+00
 DEPL             N1339    EVOL_0   DEPL                        2  2.50000E-05  1.73028E+03  1.00000E+01  6.15238E+01 -8.28328E+01  1.07388E-03  1.65195E+00 -3.40214E+00
 DEPL             N1340    EVOL_0   DEPL                        2  2.50000E-05  1.73158E+03  1.00000E+01  6.09984E+01 -8.16460E+01  1.12634E-03  1.62115E+00 -3.41655E+00
 DEPL             N1341    EVOL_0   DEPL                        2  2.50000E-05  1.73288E+03  1.00000E+01  6.04846E+01 -8.04541E+01  1.18235E-03  1.59023E+00 -3.43065E+00
 DEPL             N1342    EVOL_0   DEPL                        2  2.50000E-05  1.73418E+03  1.00000E+01  5.99827E+01 -7.92572E+01  1.23770E-03  1.55919E+00 -3.44446E+00
 DEPL             N1343    EVOL_0   DEPL                        2  2.50000E-05  1.73548E+03  1.00000E+01  5.94925E+01 -7.80554E+01  1.29464E-03  1.52806E+00 -3.45798E+00
 DEPL             N1344    EVOL_0   DEPL                        2  2.50000E-05  1.73677E+03  1.00000E+01  5.90143E+01 -7.68488E+01  1.35271E-03  1.49683E+00 -3.47120E+00
 DEPL             N1345    EVOL_0   DEPL                        2  2.50000E-05  1.73807E+03  1.00000E+01  5.85480E+01 -7.56375E+01  1.40787E-03  1.46550E+00 -3.48414E+00
 DEPL             N1346    EVOL_0   DEPL                        2  2.50000E-05  1.73937E+03  1.00000E+01  5.80937E+01 -7.44217E+01  1.46458E-03  1.43408E+00 -3.49678E+00
 DEPL             N1347    EVOL_0   DEPL                        2  2.50000E-05  1.74067E+03  1.00000E+01  5.76514E+01 -7.32015E+01  1.51810E-03  1.40257E+00 -3.50914E+00
 DEPL             N1348    EVOL_0   DEPL                        2  2.50000E-05  1.74197E+03  1.00000E+01  5.72212E+01 -7.19770E+01  1.56874E-03  1.37098E+00 -3.52120E+00
 DEPL             N1349    EVOL_0   DEPL                        2  2.50000E-05  1.74326E+03  1.00000E+01  5.68030E+01 -7.07482E+01  1.61731E-03  1.33932E+00 -3.53297E+00
 DEPL             N1350    EVOL_0   DEPL                        2  2.50000E-05  1.74456E+03  1.00000E+01  5.63971E+01 -6.95155E+01  1.65706E-03  1.30759E+00 -3.54446E+00
 DEPL             N1352    EVOL_0   DEPL                        2  2.50000E-05  1.82807E+03 -1.00000E+01  5.64135E+01  1.15662E+01 -1.52928E-03 -6.29717E-01 -3.65608E+00
 DEPL             N1353    EVOL_0   DEPL                        2  2.50000E-05  1.82942E+03 -1.00000E+01  5.68369E+01  1.28494E+01 -1.49531E-03 -6.58071E-01 -3.64782E+00
 DEPL             N1354    EVOL_0   DEPL                        2  2.50000E-05  1.83078E+03 -1.00000E+01  5.72736E+01  1.41282E+01 -1.46452E-03 -6.86294E-01 -3.63926E+00
 DEPL             N1355    EVOL_0   DEPL                        2  2.50000E-05  1.83213E+03 -1.00000E+01  5.77233E+01  1.54024E+01 -1.43635E-03 -7.14387E-01 -3.63039E+00
 DEPL             N1356    EVOL_0   DEPL                        2  2.50000E-05  1.83348E+03 -1.00000E+01  5.81861E+01  1.66720E+01 -1.41112E-03 -7.42348E-01 -3.62123E+00
 DEPL             N1357    EVOL_0   DEPL                        2  2.50000E-05  1.83483E+03 -1.00000E+01  5.86619E+01  1.79367E+01 -1.38842E-03 -7.70177E-01 -3.61177E+00
 DEPL             N1358    EVOL_0   DEPL                        2  2.50000E-05  1.83618E+03 -1.00000E+01  5.91507E+01  1.91964E+01 -1.36826E-03 -7.97875E-01 -3.60203E+00
 DEPL             N1359    EVOL_0   DEPL                        2  2.50000E-05  1.83753E+03 -1.00000E+01  5.96524E+01  2.04511E+01 -1.35113E-03 -8.25439E-01 -3.59199E+00
 DEPL             N1360    EVOL_0   DEPL                        2  2.50000E-05  1.83888E+03 -1.00000E+01  6.01670E+01  2.17006E+01 -1.33635E-03 -8.52871E-01 -3.58167E+00
 DEPL             N1361    EVOL_0   DEPL                        2  2.50000E-05  1.84024E+03 -1.00000E+01  6.06944E+01  2.29447E+01 -1.32415E-03 -8.80169E-01 -3.57107E+00
 DEPL             N1362    EVOL_0   DEPL                        2  2.50000E-05  1.84159E+03 -1.00000E+01  6.12345E+01  2.41833E+01 -1.31533E-03 -9.07330E-01 -3.56019E+00
 DEPL             N1363    EVOL_0   DEPL                        2  2.50000E-05  1.84294E+03 -1.00000E+01  6.17874E+01  2.54163E+01 -1.30975E-03 -9.34357E-01 -3.54903E+00
 DEPL             N1364    EVOL_0   DEPL                        2  2.50000E-05  1.84429E+03 -1.00000E+01  6.23528E+01  2.66435E+01 -1.30681E-03 -9.61244E-01 -3.53760E+00
 DEPL             N1365    EVOL_0   DEPL                        2  2.50000E-05  1.84564E+03 -1.00000E+01  6.29309E+01  2.78649E+01 -1.30633E-03 -9.87990E-01 -3.52591E+00
 DEPL             N1366    EVOL_0   DEPL                        2  2.50000E-05  1.84699E+03 -1.00000E+01  6.35215E+01  2.90803E+01 -1.30865E-03 -1.01459E+00 -3.51394E+00
 DEPL             N1367    EVOL_0   DEPL                        2  2.50000E-05  1.84834E+03 -1.00000E+01  6.41245E+01  3.02895E+01 -1.31396E-03 -1.04105E+00 -3.50172E+00
 DEPL             N1368    EVOL_0   DEPL                        2  2.50000E-05  1.84969E+03 -1.00000E+01  6.47400E+01  3.14925E+01 -1.32225E-03 -1.06736E+00 -3.48924E+00
 DEPL             N1369    EVOL_0   DEPL                        2  2.50000E-05  1.85105E+03 -1.00000E+01  6.53677E+01  3.26891E+01 -1.33345E-03 -1.09352E+00 -3.47651E+00
 DEPL             N1370    EVOL_0   DEPL                        2  2.50000E-05  1.85240E+03 -1.00000E+01  6.60077E+01  3.38792E+01 -1.34723E-03 -1.11954E+00 -3.46352E+00
 DEPL             N1371    EVOL_0   DEPL                        2  2.50000E-05  1.85375E+03 -1.00000E+01  6.66600E+01  3.50626E+01 -1.36313E-03 -1.14540E+00 -3.45029E+00
 DEPL             N1372    EVOL_0   DEPL                        2  2.50000E-05  1.85510E+03 -1.00000E+01  6.73243E+01  3.62393E+01 -1.38083E-03 -1.17111E+00 -3.43682E+00
 DEPL             N1373    EVOL_0   DEPL                        2  2.50000E-05  1.85645E+03 -1.00000E+01  6.80007E+01  3.74091E+01 -1.40006E-03 -1.19666E+00 -3.42311E+00
 DEPL             N1374    EVOL_0   DEPL                        2  2.50000E-05  1.85780E+03 -1.00000E+01  6.86891E+01  3.85718E+01 -1.42041E-03 -1.22205E+00 -3.40917E+00
 DEPL             N1375    EVOL_0   DEPL                        2  2.50000E-05  1.85915E+03 -1.00000E+01  6.93894E+01  3.97275E+01 -1.44145E-03 -1.24728E+00 -3.39499E+00
 DEPL             N1376    EVOL_0   DEPL                        2  2.50000E-05  1.86050E+03 -1.00000E+01  7.01015E+01  4.08758E+01 -1.46289E-03 -1.27234E+00 -3.38059E+00
 DEPL             N1377    EVOL_0   DEPL                        2  2.50000E-05  1.86186E+03 -1.00000E+01  7.08254E+01  4.20168E+01 -1.48460E-03 -1.29723E+00 -3.36598E+00
 DEPL             N1378    EVOL_0   DEPL                        2  2.50000E-05  1.86321E+03 -1.00000E+01  7.15610E+01  4.31504E+01 -1.50637E-03 -1.32196E+00 -3.35115E+00
 DEPL             N1379    EVOL_0   DEPL                        2  2.50000E-05  1.86456E+03 -1.00000E+01  7.23082E+01  4.42762E+01 -1.52790E-03 -1.34650E+00 -3.33611E+00
 DEPL             N1380    EVOL_0   DEPL                        2  2.50000E-05  1.86591E+03 -1.00000E+01  7.30670E+01  4.53944E+01 -1.54925E-03 -1.37087E+00 -3.32085E+00
 DEPL             N1381    EVOL_0   DEPL                        2  2.50000E-05  1.86726E+03 -1.00000E+01  7.38371E+01  4.65047E+01 -1.57091E-03 -1.39506E+00 -3.30540E+00
 DEPL             N1382    EVOL_0   DEPL                        2  2.50000E-05  1.86861E+03 -1.00000E+01  7.46187E+01  4.76070E+01 -1.59292E-03 -1.41906E+00 -3.28974E+00
 DEPL             N1383    EVOL_0   DEPL                        2  2.50000E-05  1.86996E+03 -1.00000E+01  7.54115E+01  4.87012E+01 -1.61459E-03 -1.44286E+00 -3.27389E+00
 DEPL             N1384    EVOL_0   DEPL                        2  2.50000E-05  1.87131E+03 -1.00000E+01  7.62155E+01  4.97872E+01 -1.63571E-03 -1.46648E+00 -3.25784E+00
 DEPL             N1385    EVOL_0   DEPL                        2  2.50000E-05  1.87267E+03 -1.00000E+01  7.70307E+01  5.08650E+01 -1.65650E-03 -1.48989E+00 -3.24160E+00
 DEPL             N1386    EVOL_0   DEPL                        2  2.50000E-05  1.87402E+03 -1.00000E+01  7.78569E+01  5.19342E+01 -1.67652E-03 -1.51310E+00 -3.22517E+00
 DEPL             N1387    EVOL_0   DEPL                        2  2.50000E-05  1.87537E+03 -1.00000E+01  7.86940E+01  5.29950E+01 -1.69533E-03 -1.53611E+00 -3.20856E+00
 DEPL             N1388    EVOL_0   DEPL                        2  2.50000E-05  1.87672E+03 -1.00000E+01  7.95420E+01  5.40470E+01 -1.71303E-03 -1.55890E+00 -3.19178E+00
 DEPL             N1389    EVOL_0   DEPL                        2  2.50000E-05  1.87807E+03 -1.00000E+01  8.04007E+01  5.50903E+01 -1.72932E-03 -1.58148E+00 -3.17482E+00
 DEPL             N1390    EVOL_0   DEPL                        2  2.50000E-05  1.87942E+03 -1.00000E+01  8.12701E+01  5.61247E+01 -1.74368E-03 -1.60384E+00 -3.15768E+00
 DEPL             N1391    EVOL_0   DEPL                        2  2.50000E-05  1.93422E+03  1.00000E+01  5.64135E+01  1.15662E+01  1.58325E-03 -6.29204E-01 -3.65612E+00
 DEPL             N1392    EVOL_0   DEPL                        2  2.50000E-05  1.93558E+03  1.00000E+01  5.68369E+01  1.28494E+01  1.53139E-03 -6.57570E-01 -3.64787E+00
 DEPL             N1393    EVOL_0   DEPL                        2  2.50000E-05  1.93693E+03  1.00000E+01  5.72736E+01  1.41282E+01  1.48399E-03 -6.85806E-01 -3.63931E+00
 DEPL             N1394    EVOL_0   DEPL                        2  2.50000E-05  1.93828E+03  1.00000E+01  5.77233E+01  1.54024E+01  1.44068E-03 -7.13911E-01 -3.63046E+00
 DEPL             N1395    EVOL_0   DEPL                        2  2.50000E-05  1.93963E+03  1.00000E+01  5.81861E+01  1.66720E+01  1.40168E-03 -7.41885E-01 -3.62131E+00
 DEPL             N1396    EVOL_0   DEPL                        2  2.50000E-05  1.94098E+03  1.00000E+01  5.86619E+01  1.79367E+01  1.36667E-03 -7.69725E-01 -3.61186E+00
 DEPL             N1397    EVOL_0   DEPL                        2  2.50000E-05  1.94233E+03  1.00000E+01  5.91507E+01  1.91964E+01  1.33572E-03 -7.97435E-01 -3.60213E+00
 DEPL             N1398    EVOL_0   DEPL                        2  2.50000E-05  1.94368E+03  1.00000E+01  5.96524E+01  2.04511E+01  1.30937E-03 -8.25010E-01 -3.59210E+00
 DEPL             N1399    EVOL_0   DEPL                        2  2.50000E-05  1.94503E+03  1.00000E+01  6.01670E+01  2.17006E+01  1.28700E-03 -8.52453E-01 -3.58179E+00
 DEPL             N1400    EVOL_0   DEPL                        2  2.50000E-05  1.94639E+03  1.00000E+01  6.06944E+01  2.29447E+01  1.26879E-03 -8.79762E-01 -3.57120E+00
 DEPL             N1401    EVOL_0   DEPL                        2  2.50000E-05  1.94774E+03  1.00000E+01  6.12345E+01  2.41833E+01  1.25562E-03 -9.06933E-01 -3.56033E+00
 DEPL             N1402    EVOL_0   DEPL                        2  2.50000E-05  1.94909E+03  1.00000E+01  6.17874E+01  2.54163E+01  1.24738E-03 -9.33969E-01 -3.54919E+00
 DEPL             N1403    EVOL_0   DEPL                        2  2.50000E-05  1.95044E+03  1.00000E+01  6.23528E+01  2.66435E+01  1.24332E-03 -9.60866E-01 -3.53777E+00
 DEPL             N1404    EVOL_0   DEPL                        2  2.50000E-05  1.95179E+03  1.00000E+01  6.29309E+01  2.78649E+01  1.24328E-03 -9.87620E-01 -3.52609E+00
 DEPL             N1405    EVOL_0   DEPL                        2  2.50000E-05  1.95314E+03  1.00000E+01  6.35215E+01  2.90803E+01  1.24769E-03 -1.01423E+00 -3.51414E+00
 DEPL             N1406    EVOL_0   DEPL                        2  2.50000E-05  1.95449E+03  1.00000E+01  6.41245E+01  3.02895E+01  1.25678E-03 -1.04069E+00 -3.50193E+00
 DEPL             N1407    EVOL_0   DEPL                        2  2.50000E-05  1.95584E+03  1.00000E+01  6.47400E+01  3.14925E+01  1.27047E-03 -1.06701E+00 -3.48946E+00
 DEPL             N1408    EVOL_0   DEPL                        2  2.50000E-05  1.95720E+03  1.00000E+01  6.53677E+01  3.26891E+01  1.28858E-03 -1.09318E+00 -3.47674E+00
 DEPL             N1409    EVOL_0   DEPL                        2  2.50000E-05  1.95855E+03  1.00000E+01  6.60077E+01  3.38792E+01  1.31074E-03 -1.11921E+00 -3.46376E+00
 DEPL             N1410    EVOL_0   DEPL                        2  2.50000E-05  1.95990E+03  1.00000E+01  6.66600E+01  3.50626E+01  1.33642E-03 -1.14507E+00 -3.45054E+00
 DEPL             N1411    EVOL_0   DEPL                        2  2.50000E-05  1.96125E+03  1.00000E+01  6.73243E+01  3.62393E+01  1.36528E-03 -1.17079E+00 -3.43708E+00
 DEPL             N1412    EVOL_0   DEPL                        2  2.50000E-05  1.96260E+03  1.00000E+01  6.80007E+01  3.74091E+01  1.39702E-03 -1.19634E+00 -3.42338E+00
 DEPL             N1413    EVOL_0   DEPL                        2  2.50000E-05  1.96395E+03  1.00000E+01  6.86891E+01  3.85718E+01  1.43119E-03 -1.22174E+00 -3.40945E+00
 DEPL             N1414    EVOL_0   DEPL                        2  2.50000E-05  1.96530E+03  1.00000E+01  6.93894E+01  3.97275E+01  1.46730E-03 -1.24697E+00 -3.39529E+00
 DEPL             N1415    EVOL_0   DEPL                        2  2.50000E-05  1.96665E+03  1.00000E+01  7.01015E+01  4.08758E+01  1.50497E-03 -1.27204E+00 -3.38090E+00
 DEPL             N1416    EVOL_0   DEPL                        2  2.50000E-05  1.96801E+03  1.00000E+01  7.08254E+01  4.20168E+01  1.54398E-03 -1.29693E+00 -3.36629E+00
 DEPL             N1417    EVOL_0   DEPL                        2  2.50000E-05  1.96936E+03  1.00000E+01  7.15610E+01  4.31504E+01  1.58394E-03 -1.32166E+00 -3.35147E+00
 DEPL             N1418    EVOL_0   DEPL                        2  2.50000E-05  1.97071E+03  1.00000E+01  7.23082E+01  4.42762E+01  1.62437E-03 -1.34621E+00 -3.33644E+00
 DEPL             N1419    EVOL_0   DEPL                        2  2.50000E-05  1.97206E+03  1.00000E+01  7.30670E+01  4.53944E+01  1.66518E-03 -1.37058E+00 -3.32120E+00
 DEPL             N1420    EVOL_0   DEPL                        2  2.50000E-05  1.97341E+03  1.00000E+01  7.38371E+01  4.65047E+01  1.70674E-03 -1.39476E+00 -3.30575E+00
 DEPL             N1421    EVOL_0   DEPL                        2  2.50000E-05  1.97476E+03  1.00000E+01  7.46187E+01  4.76070E+01  1.74885E-03 -1.41876E+00 -3.29010E+00
 DEPL             N1422    EVOL_0   DEPL                        2  2.50000E-05  1.97611E+03  1.00000E+01  7.54115E+01  4.87012E+01  1.79056E-03 -1.44257E+00 -3.27425E+00
 DEPL             N1423    EVOL_0   DEPL                        2  2.50000E-05  1.97746E+03  1.00000E+01  7.62155E+01  4.97872E+01  1.83152E-03 -1.46618E+00 -3.25820E+00
 DEPL             N1424    EVOL_0   DEPL                        2  2.50000E-05  1.97882E+03  1.00000E+01  7.70307E+01  5.08650E+01  1.87176E-03 -1.48959E+00 -3.24197E+00
 DEPL             N1425    EVOL_0   DEPL                        2  2.50000E-05  1.98017E+03  1.00000E+01  7.78569E+01  5.19342E+01  1.91056E-03 -1.51280E+00 -3.22555E+00
 DEPL             N1426    EVOL_0   DEPL                        2  2.50000E-05  1.98152E+03  1.00000E+01  7.86940E+01  5.29950E+01  1.94741E-03 -1.53581E+00 -3.20894E+00
 DEPL             N1427    EVOL_0   DEPL                        2  2.50000E-05  1.98287E+03  1.00000E+01  7.95420E+01  5.40470E+01  1.98222E-03 -1.55860E+00 -3.19216E+00
 DEPL             N1428    EVOL_0   DEPL                        2  2.50000E-05  1.98422E+03  1.00000E+01  8.04007E+01  5.50903E+01  2.01456E-03 -1.58117E+00 -3.17519E+00
 DEPL             N1429    EVOL_0   DEPL                        2  2.50000E-05  1.98557E+03  1.00000E+01  8.12701E+01  5.61247E+01  2.04422E-03 -1.60353E+00 -3.15806E+00
 DEPL             N1751    EVOL_0   DEPL                        2  2.50000E-05  2.06137E+03 -1.00000E+01  1.42221E+02  9.64967E+01 -1.64223E-03 -2.44737E+00 -2.00436E+00
 DEPL             N1753    EVOL_0   DEPL                        2  2.50000E-05  2.08137E+03  1.00000E+01  1.42221E+02  9.64967E+01  1.70307E-03 -2.44733E+00 -2.00488E+00
 DEPL             N1754    EVOL_0   DEPL                        2  2.50000E-05  2.13741E+03 -1.00000E+01  9.63753E+01  7.12299E+01 -1.71741E-03 -1.92608E+00 -2.86549E+00
 DEPL             N1755    EVOL_0   DEPL                        2  2.50000E-05  2.13876E+03 -1.00000E+01  9.74097E+01  7.20993E+01 -1.69857E-03 -1.94430E+00 -2.84579E+00
 DEPL             N1756    EVOL_0   DEPL                        2  2.50000E-05  2.14011E+03 -1.00000E+01  9.84530E+01  7.29580E+01 -1.67867E-03 -1.96225E+00 -2.82596E+00
 DEPL             N1757    EVOL_0   DEPL                        2  2.50000E-05  2.14146E+03 -1.00000E+01  9.95050E+01  7.38060E+01 -1.65763E-03 -1.97994E+00 -2.80598E+00
 DEPL             N1758    EVOL_0   DEPL                        2  2.50000E-05  2.14281E+03 -1.00000E+01  1.00566E+02  7.46431E+01 -1.63556E-03 -1.99736E+00 -2.78586E+00
 DEPL             N1759    EVOL_0   DEPL                        2  2.50000E-05  2.14416E+03 -1.00000E+01  1.01635E+02  7.54693E+01 -1.61316E-03 -2.01452E+00 -2.76560E+00
 DEPL             N1760    EVOL_0   DEPL                        2  2.50000E-05  2.14551E+03 -1.00000E+01  1.02713E+02  7.62845E+01 -1.59043E-03 -2.03141E+00 -2.74520E+00
 DEPL             N1761    EVOL_0   DEPL                        2  2.50000E-05  2.14686E+03 -1.00000E+01  1.03799E+02  7.70885E+01 -1.56721E-03 -2.04805E+00 -2.72466E+00
 DEPL             N1762    EVOL_0   DEPL                        2  2.50000E-05  2.14822E+03 -1.00000E+01  1.04893E+02  7.78813E+01 -1.54435E-03 -2.06441E+00 -2.70399E+00
 DEPL             N1763    EVOL_0   DEPL                        2  2.50000E-05  2.14957E+03 -1.00000E+01  1.05995E+02  7.86629E+01 -1.52210E-03 -2.08052E+00 -2.68317E+00
 DEPL             N1764    EVOL_0   DEPL                        2  2.50000E-05  2.15092E+03 -1.00000E+01  1.07106E+02  7.94330E+01 -1.50002E-03 -2.09636E+00 -2.66222E+00
 DEPL             N1765    EVOL_0   DEPL                        2  2.50000E-05  2.15227E+03 -1.00000E+01  1.08224E+02  8.01918E+01 -1.47864E-03 -2.11195E+00 -2.64113E+00
 DEPL             N1766    EVOL_0   DEPL                        2  2.50000E-05  2.15362E+03 -1.00000E+01  1.09350E+02  8.09390E+01 -1.45888E-03 -2.12727E+00 -2.61991E+00
 DEPL             N1767    EVOL_0   DEPL                        2  2.50000E-05  2.15497E+03 -1.00000E+01  1.10483E+02  8.16746E+01 -1.44088E-03 -2.14233E+00 -2.59855E+00
 DEPL             N1768    EVOL_0   DEPL                        2  2.50000E-05  2.15632E+03 -1.00000E+01  1.11624E+02  8.23985E+01 -1.42426E-03 -2.15714E+00 -2.57706E+00
 DEPL             N1769    EVOL_0   DEPL                        2  2.50000E-05  2.15767E+03 -1.00000E+01  1.12773E+02  8.31106E+01 -1.40884E-03 -2.17169E+00 -2.55544E+00
 DEPL             N1770    EVOL_0   DEPL                        2  2.50000E-05  2.15903E+03 -1.00000E+01  1.13928E+02  8.38109E+01 -1.39470E-03 -2.18599E+00 -2.53368E+00
 DEPL             N1771    EVOL_0   DEPL                        2  2.50000E-05  2.16038E+03 -1.00000E+01  1.15091E+02  8.44993E+01 -1.38206E-03 -2.20004E+00 -2.51181E+00
 DEPL             N1772    EVOL_0   DEPL                        2  2.50000E-05  2.16173E+03 -1.00000E+01  1.16261E+02  8.51757E+01 -1.37109E-03 -2.21383E+00 -2.48981E+00
 DEPL             N1773    EVOL_0   DEPL                        2  2.50000E-05  2.16308E+03 -1.00000E+01  1.17437E+02  8.58400E+01 -1.36191E-03 -2.22738E+00 -2.46768E+00
 DEPL             N1774    EVOL_0   DEPL                        2  2.50000E-05  2.16443E+03 -1.00000E+01  1.18621E+02  8.64923E+01 -1.35462E-03 -2.24067E+00 -2.44544E+00
 DEPL             N1775    EVOL_0   DEPL                        2  2.50000E-05  2.16578E+03 -1.00000E+01  1.19811E+02  8.71323E+01 -1.34930E-03 -2.25372E+00 -2.42308E+00
 DEPL             N1776    EVOL_0   DEPL                        2  2.50000E-05  2.16713E+03 -1.00000E+01  1.21008E+02  8.77600E+01 -1.34601E-03 -2.26651E+00 -2.40060E+00
 DEPL             N1777    EVOL_0   DEPL                        2  2.50000E-05  2.16848E+03 -1.00000E+01  1.22210E+02  8.83755E+01 -1.34476E-03 -2.27906E+00 -2.37802E+00
 DEPL             N1778    EVOL_0   DEPL                        2  2.50000E-05  2.16984E+03 -1.00000E+01  1.23420E+02  8.89785E+01 -1.34560E-03 -2.29137E+00 -2.35532E+00
 DEPL             N1779    EVOL_0   DEPL                        2  2.50000E-05  2.17119E+03 -1.00000E+01  1.24635E+02  8.95691E+01 -1.34868E-03 -2.30343E+00 -2.33252E+00
 DEPL             N1780    EVOL_0   DEPL                        2  2.50000E-05  2.17254E+03 -1.00000E+01  1.25856E+02  9.01472E+01 -1.35427E-03 -2.31525E+00 -2.30961E+00
 DEPL             N1781    EVOL_0   DEPL                        2  2.50000E-05  2.17389E+03 -1.00000E+01  1.27084E+02  9.07126E+01 -1.36266E-03 -2.32683E+00 -2.28661E+00
 DEPL             N1782    EVOL_0   DEPL                        2  2.50000E-05  2.17524E+03 -1.00000E+01  1.28317E+02  9.12655E+01 -1.37381E-03 -2.33818E+00 -2.26351E+00
 DEPL             N1783    EVOL_0   DEPL                        2  2.50000E-05  2.17659E+03 -1.00000E+01  1.29555E+02  9.18056E+01 -1.38738E-03 -2.34928E+00 -2.24032E+00
 DEPL             N1784    EVOL_0   DEPL                        2  2.50000E-05  2.17794E+03 -1.00000E+01  1.30799E+02  9.23330E+01 -1.40328E-03 -2.36014E+00 -2.21704E+00
 DEPL             N1785    EVOL_0   DEPL                        2  2.50000E-05  2.17930E+03 -1.00000E+01  1.32049E+02  9.28476E+01 -1.42170E-03 -2.37077E+00 -2.19368E+00
 DEPL             N1786    EVOL_0   DEPL                        2  2.50000E-05  2.18065E+03 -1.00000E+01  1.33304E+02  9.33493E+01 -1.44249E-03 -2.38116E+00 -2.17024E+00
 DEPL             N1787    EVOL_0   DEPL                        2  2.50000E-05  2.18200E+03 -1.00000E+01  1.34563E+02  9.38381E+01 -1.46539E-03 -2.39132E+00 -2.14673E+00
 DEPL             N1788    EVOL_0   DEPL                        2  2.50000E-05  2.18335E+03 -1.00000E+01  1.35828E+02  9.43139E+01 -1.49048E-03 -2.40124E+00 -2.12314E+00
 DEPL             N1789    EVOL_0   DEPL                        2  2.50000E-05  2.18470E+03 -1.00000E+01  1.37098E+02  9.47767E+01 -1.51757E-03 -2.41093E+00 -2.09950E+00
 DEPL             N1790    EVOL_0   DEPL                        2  2.50000E-05  2.18605E+03 -1.00000E+01  1.38372E+02  9.52264E+01 -1.54645E-03 -2.42039E+00 -2.07579E+00
 DEPL             N1791    EVOL_0   DEPL                        2  2.50000E-05  2.18740E+03 -1.00000E+01  1.39651E+02  9.56631E+01 -1.57703E-03 -2.42961E+00 -2.05203E+00
 DEPL             N1792    EVOL_0   DEPL                        2  2.50000E-05  2.18875E+03 -1.00000E+01  1.40934E+02  9.60865E+01 -1.60907E-03 -2.43860E+00 -2.02822E+00
 DEPL             N1793    EVOL_0   DEPL                        2  2.50000E-05  2.24356E+03  1.00000E+01  9.63753E+01  7.12299E+01  2.02258E-03 -1.92570E+00 -2.86580E+00
 DEPL             N1794    EVOL_0   DEPL                        2  2.50000E-05  2.24491E+03  1.00000E+01  9.74097E+01  7.20993E+01  1.98882E-03 -1.94392E+00 -2.84611E+00
 DEPL             N1795    EVOL_0   DEPL                        2  2.50000E-05  2.24626E+03  1.00000E+01  9.84530E+01  7.29580E+01  1.95320E-03 -1.96187E+00 -2.82627E+00
 DEPL             N1796    EVOL_0   DEPL                        2  2.50000E-05  2.24761E+03  1.00000E+01  9.95050E+01  7.38060E+01  1.91532E-03 -1.97956E+00 -2.80629E+00
 DEPL             N1797    EVOL_0   DEPL                        2  2.50000E-05  2.24896E+03  1.00000E+01  1.00566E+02  7.46431E+01  1.87543E-03 -1.99699E+00 -2.78616E+00
 DEPL             N1798    EVOL_0   DEPL                        2  2.50000E-05  2.25031E+03  1.00000E+01  1.01635E+02  7.54693E+01  1.83443E-03 -2.01415E+00 -2.76590E+00
 DEPL             N1799    EVOL_0   DEPL                        2  2.50000E-05  2.25166E+03  1.00000E+01  1.02713E+02  7.62845E+01  1.79236E-03 -2.03105E+00 -2.74550E+00
 DEPL             N1800    EVOL_0   DEPL                        2  2.50000E-05  2.25302E+03  1.00000E+01  1.03799E+02  7.70885E+01  1.74935E-03 -2.04768E+00 -2.72496E+00
 DEPL             N1801    EVOL_0   DEPL                        2  2.50000E-05  2.25437E+03  1.00000E+01  1.04893E+02  7.78813E+01  1.70643E-03 -2.06406E+00 -2.70429E+00
 DEPL             N1802    EVOL_0   DEPL                        2  2.50000E-05  2.25572E+03  1.00000E+01  1.05995E+02  7.86629E+01  1.66399E-03 -2.08017E+00 -2.68347E+00
 DEPL             N1803    EVOL_0   DEPL                        2  2.50000E-05  2.25707E+03  1.00000E+01  1.07106E+02  7.94330E+01  1.62187E-03 -2.09602E+00 -2.66252E+00
 DEPL             N1804    EVOL_0   DEPL                        2  2.50000E-05  2.25842E+03  1.00000E+01  1.08224E+02  8.01918E+01  1.58083E-03 -2.11161E+00 -2.64143E+00
 DEPL             N1805    EVOL_0   DEPL                        2  2.50000E-05  2.25977E+03  1.00000E+01  1.09350E+02  8.09390E+01  1.54193E-03 -2.12694E+00 -2.62021E+00
 DEPL             N1806    EVOL_0   DEPL                        2  2.50000E-05  2.26112E+03  1.00000E+01  1.10483E+02  8.16746E+01  1.50545E-03 -2.14201E+00 -2.59885E+00
 DEPL             N1807    EVOL_0   DEPL                        2  2.50000E-05  2.26247E+03  1.00000E+01  1.11624E+02  8.23985E+01  1.47124E-03 -2.15683E+00 -2.57736E+00
 DEPL             N1808    EVOL_0   DEPL                        2  2.50000E-05  2.26383E+03  1.00000E+01  1.12773E+02  8.31106E+01  1.43925E-03 -2.17139E+00 -2.55574E+00
 DEPL             N1809    EVOL_0   DEPL                        2  2.50000E-05  2.26518E+03  1.00000E+01  1.13928E+02  8.38109E+01  1.40969E-03 -2.18570E+00 -2.53400E+00
 DEPL             N1810    EVOL_0   DEPL                        2  2.50000E-05  2.26653E+03  1.00000E+01  1.15091E+02  8.44993E+01  1.38286E-03 -2.19976E+00 -2.51212E+00
 DEPL             N1811    EVOL_0   DEPL                        2  2.50000E-05  2.26788E+03  1.00000E+01  1.16261E+02  8.51757E+01  1.35897E-03 -2.21356E+00 -2.49013E+00
 DEPL             N1812    EVOL_0   DEPL                        2  2.50000E-05  2.26923E+03  1.00000E+01  1.17437E+02  8.58400E+01  1.33821E-03 -2.22712E+00 -2.46801E+00
 DEPL             N1813    EVOL_0   DEPL                        2  2.50000E-05  2.27058E+03  1.00000E+01  1.18621E+02  8.64923E+01  1.32072E-03 -2.24042E+00 -2.44577E+00
 DEPL             N1814    EVOL_0   DEPL                        2  2.50000E-05  2.27193E+03  1.00000E+01  1.19811E+02  8.71323E+01  1.30663E-03 -2.25348E+00 -2.42342E+00
 DEPL             N1815    EVOL_0   DEPL                        2  2.50000E-05  2.27328E+03  1.00000E+01  1.21008E+02  8.77600E+01  1.29601E-03 -2.26629E+00 -2.40095E+00
 DEPL             N1816    EVOL_0   DEPL                        2  2.50000E-05  2.27464E+03  1.00000E+01  1.22210E+02  8.83755E+01  1.28891E-03 -2.27885E+00 -2.37837E+00
 DEPL             N1817    EVOL_0   DEPL                        2  2.50000E-05  2.27599E+03  1.00000E+01  1.23420E+02  8.89785E+01  1.28540E-03 -2.29117E+00 -2.35568E+00
 DEPL             N1818    EVOL_0   DEPL                        2  2.50000E-05  2.27734E+03  1.00000E+01  1.24635E+02  8.95691E+01  1.28563E-03 -2.30324E+00 -2.33288E+00
 DEPL             N1819    EVOL_0   DEPL                        2  2.50000E-05  2.27869E+03  1.00000E+01  1.25856E+02  9.01472E+01  1.28996E-03 -2.31508E+00 -2.30999E+00
 DEPL             N1820    EVOL_0   DEPL                        2  2.50000E-05  2.28004E+03  1.00000E+01  1.27084E+02  9.07126E+01  1.29870E-03 -2.32667E+00 -2.28699E+00
 DEPL             N1821    EVOL_0   DEPL                        2  2.50000E-05  2.28139E+03  1.00000E+01  1.28317E+02  9.12655E+01  1.31179E-03 -2.33802E+00 -2.26390E+00
 DEPL             N1822    EVOL_0   DEPL                        2  2.50000E-05  2.28274E+03  1.00000E+01  1.29555E+02  9.18056E+01  1.32886E-03 -2.34914E+00 -2.24072E+00
 DEPL             N1823    EVOL_0   DEPL                        2  2.50000E-05  2.28409E+03  1.00000E+01  1.30799E+02  9.23330E+01  1.34986E-03 -2.36001E+00 -2.21745E+00
 DEPL             N1824    EVOL_0   DEPL                        2  2.50000E-05  2.28545E+03  1.00000E+01  1.32049E+02  9.28476E+01  1.37499E-03 -2.37065E+00 -2.19410E+00
 DEPL             N1825    EVOL_0   DEPL                        2  2.50000E-05  2.28680E+03  1.00000E+01  1.33304E+02  9.33493E+01  1.40401E-03 -2.38106E+00 -2.17067E+00
 DEPL             N1826    EVOL_0   DEPL                        2  2.50000E-05  2.28815E+03  1.00000E+01  1.34563E+02  9.38381E+01  1.43673E-03 -2.39122E+00 -2.14717E+00
 DEPL             N1827    EVOL_0   DEPL                        2  2.50000E-05  2.28950E+03  1.00000E+01  1.35828E+02  9.43139E+01  1.47317E-03 -2.40116E+00 -2.12360E+00
 DEPL             N1828    EVOL_0   DEPL                        2  2.50000E-05  2.29085E+03  1.00000E+01  1.37098E+02  9.47767E+01  1.51305E-03 -2.41086E+00 -2.09996E+00
 DEPL             N1829    EVOL_0   DEPL                        2  2.50000E-05  2.29220E+03  1.00000E+01  1.38372E+02  9.52264E+01  1.55617E-03 -2.42032E+00 -2.07627E+00
 DEPL             N1830    EVOL_0   DEPL                        2  2.50000E-05  2.29355E+03  1.00000E+01  1.39651E+02  9.56631E+01  1.60246E-03 -2.42956E+00 -2.05252E+00
 DEPL             N1831    EVOL_0   DEPL                        2  2.50000E-05  2.29490E+03  1.00000E+01  1.40934E+02  9.60865E+01  1.65163E-03 -2.43856E+00 -2.02872E+00
 DEPL             N2231    EVOL_0   DEPL                        2  2.50000E-05  2.32296E+03 -1.00000E+01  1.60055E+02  1.00740E+02 -2.13238E-03 -2.54356E+00 -1.67926E+00
 DEPL             N2233    EVOL_0   DEPL                        2  2.50000E-05  2.34296E+03  1.00000E+01  1.60055E+02  1.00740E+02  2.48107E-03 -2.54358E+00 -1.67994E+00
 DEPL             N2396    EVOL_0   DEPL                        2  2.50000E-05  2.39029E+03 -1.00000E+01  2.02945E+02  1.00740E+02 -2.10078E-03 -2.60113E+00 -9.59566E-01
 DEPL             N2398    EVOL_0   DEPL                        2  2.50000E-05  2.41029E+03  1.00000E+01  2.02945E+02  1.00740E+02  2.45473E-03 -2.60112E+00 -9.60258E-01
 DEPL             N2399    EVOL_0   DEPL                        2  2.50000E-05  2.45665E+03 -1.00000E+01  1.61119E+02  1.00911E+02 -2.15874E-03 -2.54789E+00 -1.66026E+00
 DEPL             N2400    EVOL_0   DEPL                        2  2.50000E-05  2.45773E+03 -1.00000E+01  1.62183E+02  1.01074E+02 -2.18403E-03 -2.55207E+00 -1.64129E+00
 DEPL             N2401    EVOL_0   DEPL                        2  2.50000E-05  2.45880E+03 -1.00000E+01  1.63249E+02  1.01227E+02 -2.20822E-03 -2.55610E+00 -1.62236E+00
 DEPL             N2402    EVOL_0   DEPL                        2  2.50000E-05  2.45988E+03 -1.00000E+01  1.64317E+02  1.01372E+02 -2.23114E-03 -2.55999E+00 -1.60346E+00
 DEPL             N2403    EVOL_0   DEPL                        2  2.50000E-05  2.46096E+03 -1.00000E+01  1.65385E+02  1.01509E+02 -2.25278E-03 -2.56373E+00 -1.58459E+00
 DEPL             N2404    EVOL_0   DEPL                        2  2.50000E-05  2.46203E+03 -1.00000E+01  1.66454E+02  1.01636E+02 -2.27310E-03 -2.56732E+00 -1.56576E+00
 DEPL             N2405    EVOL_0   DEPL                        2  2.50000E-05  2.46311E+03 -1.00000E+01  1.67525E+02  1.01755E+02 -2.29210E-03 -2.57076E+00 -1.54697E+00
 DEPL             N2406    EVOL_0   DEPL                        2  2.50000E-05  2.46419E+03 -1.00000E+01  1.68596E+02  1.01865E+02 -2.30973E-03 -2.57405E+00 -1.52823E+00
 DEPL             N2407    EVOL_0   DEPL                        2  2.50000E-05  2.46526E+03 -1.00000E+01  1.69669E+02  1.01967E+02 -2.32590E-03 -2.57719E+00 -1.50952E+00
 DEPL             N2408    EVOL_0   DEPL                        2  2.50000E-05  2.46634E+03 -1.00000E+01  1.70742E+02  1.02059E+02 -2.34062E-03 -2.58019E+00 -1.49087E+00
 DEPL             N2409    EVOL_0   DEPL                        2  2.50000E-05  2.46742E+03 -1.00000E+01  1.71815E+02  1.02143E+02 -2.35391E-03 -2.58303E+00 -1.47226E+00
 DEPL             N2410    EVOL_0   DEPL                        2  2.50000E-05  2.46850E+03 -1.00000E+01  1.72890E+02  1.02218E+02 -2.36568E-03 -2.58573E+00 -1.45370E+00
 DEPL             N2411    EVOL_0   DEPL                        2  2.50000E-05  2.46957E+03 -1.00000E+01  1.73965E+02  1.02284E+02 -2.37587E-03 -2.58828E+00 -1.43520E+00
 DEPL             N2412    EVOL_0   DEPL                        2  2.50000E-05  2.47065E+03 -1.00000E+01  1.75040E+02  1.02341E+02 -2.38456E-03 -2.59067E+00 -1.41675E+00
 DEPL             N2413    EVOL_0   DEPL                        2  2.50000E-05  2.47173E+03 -1.00000E+01  1.76116E+02  1.02390E+02 -2.39172E-03 -2.59292E+00 -1.39835E+00
 DEPL             N2414    EVOL_0   DEPL                        2  2.50000E-05  2.47280E+03 -1.00000E+01  1.77193E+02  1.02429E+02 -2.39725E-03 -2.59502E+00 -1.38001E+00
 DEPL             N2415    EVOL_0   DEPL                        2  2.50000E-05  2.47388E+03 -1.00000E+01  1.78269E+02  1.02460E+02 -2.40108E-03 -2.59697E+00 -1.36172E+00
 DEPL             N2416    EVOL_0   DEPL                        2  2.50000E-05  2.47496E+03 -1.00000E+01  1.79346E+02  1.02482E+02 -2.40330E-03 -2.59877E+00 -1.34350E+00
 DEPL             N2417    EVOL_0   DEPL                        2  2.50000E-05  2.47603E+03 -1.00000E+01  1.80423E+02  1.02496E+02 -2.40398E-03 -2.60042E+00 -1.32534E+00
 DEPL             N2418    EVOL_0   DEPL                        2  2.50000E-05  2.47711E+03 -1.00000E+01  1.81500E+02  1.02500E+02 -2.40314E-03 -2.60193E+00 -1.30724E+00
 DEPL             N2419    EVOL_0   DEPL                        2  2.50000E-05  2.47819E+03 -1.00000E+01  1.82577E+02  1.02496E+02 -2.40076E-03 -2.60328E+00 -1.28920E+00
 DEPL             N2420    EVOL_0   DEPL                        2  2.50000E-05  2.47927E+03 -1.00000E+01  1.83654E+02  1.02482E+02 -2.39684E-03 -2.60449E+00 -1.27122E+00
 DEPL             N2421    EVOL_0   DEPL                        2  2.50000E-05  2.48034E+03 -1.00000E+01  1.84731E+02  1.02460E+02 -2.39145E-03 -2.60554E+00 -1.25331E+00
 DEPL             N2422    EVOL_0   DEPL                        2  2.50000E-05  2.48142E+03 -1.00000E+01  1.85807E+02  1.02429E+02 -2.38471E-03 -2.60645E+00 -1.23546E+00
 DEPL             N2423    EVOL_0   DEPL                        2  2.50000E-05  2.48250E+03 -1.00000E+01  1.86884E+02  1.02390E+02 -2.37667E-03 -2.60722E+00 -1.21769E+00
 DEPL             N2424    EVOL_0   DEPL                        2  2.50000E-05  2.48357E+03 -1.00000E+01  1.87960E+02  1.02341E+02 -2.36721E-03 -2.60783E+00 -1.19998E+00
 DEPL             N2425    EVOL_0   DEPL                        2  2.50000E-05  2.48465E+03 -1.00000E+01  1.89035E+02  1.02284E+02 -2.35625E-03 -2.60830E+00 -1.18233E+00
 DEPL             N2426    EVOL_0   DEPL                        2  2.50000E-05  2.48573E+03 -1.00000E+01  1.90110E+02  1.02218E+02 -2.34390E-03 -2.60862E+00 -1.16476E+00
 DEPL             N2427    EVOL_0   DEPL                        2  2.50000E-05  2.48681E+03 -1.00000E+01  1.91185E+02  1.02143E+02 -2.33026E-03 -2.60880E+00 -1.14726E+00
 DEPL             N2428    EVOL_0   DEPL                        2  2.50000E-05  2.48788E+03 -1.00000E+01  1.92258E+02  1.02059E+02 -2.31526E-03 -2.60883E+00 -1.12983E+00
 DEPL             N2429    EVOL_0   DEPL                        2  2.50000E-05  2.48896E+03 -1.00000E+01  1.93331E+02  1.01967E+02 -2.29890E-03 -2.60871E+00 -1.11247E+00
 DEPL             N2430    EVOL_0   DEPL                        2  2.50000E-05  2.49004E+03 -1.00000E+01  1.94404E+02  1.01865E+02 -2.28128E-03 -2.60845E+00 -1.09519E+00
 DEPL             N2431    EVOL_0   DEPL                        2  2.50000E-05  2.49111E+03 -1.00000E+01  1.95475E+02  1.01755E+02 -2.26244E-03 -2.60804E+00 -1.07798E+00
 DEPL             N2432    EVOL_0   DEPL                        2  2.50000E-05  2.49219E+03 -1.00000E+01  1.96546E+02  1.01636E+02 -2.24239E-03 -2.60749E+00 -1.06084E+00
 DEPL             N2433    EVOL_0   DEPL                        2  2.50000E-05  2.49327E+03 -1.00000E+01  1.97615E+02  1.01509E+02 -2.22116E-03 -2.60679E+00 -1.04377E+00
 DEPL             N2434    EVOL_0   DEPL                        2  2.50000E-05  2.49434E+03 -1.00000E+01  1.98683E+02  1.01372E+02 -2.19889E-03 -2.60595E+00 -1.02678E+00
 DEPL             N2435    EVOL_0   DEPL                        2  2.50000E-05  2.49542E+03 -1.00000E+01  1.99751E+02  1.01227E+02 -2.17565E-03 -2.60496E+00 -1.00986E+00
 DEPL             N2436    EVOL_0   DEPL                        2  2.50000E-05  2.49650E+03 -1.00000E+01  2.00817E+02  1.01074E+02 -2.15151E-03 -2.60383E+00 -9.93023E-01
 DEPL             N2437    EVOL_0   DEPL                        2  2.50000E-05  2.49758E+03 -1.00000E+01  2.01881E+02  1.00911E+02 -2.12660E-03 -2.60255E+00 -9.76256E-01
 DEPL             N2438    EVOL_0   DEPL                        2  2.50000E-05  2.54298E+03  1.00000E+01  1.61119E+02  1.00911E+02  2.52130E-03 -2.54790E+00 -1.66096E+00
 DEPL             N2439    EVOL_0   DEPL                        2  2.50000E-05  2.54406E+03  1.00000E+01  1.62183E+02  1.01074E+02  2.55975E-03 -2.55208E+00 -1.64200E+00
 DEPL             N2440    EVOL_0   DEPL                        2  2.50000E-05  2.54513E+03  1.00000E+01  1.63249E+02  1.01227E+02  2.59616E-03 -2.55612E+00 -1.62307E+00
 DEPL             N2441    EVOL_0   DEPL                        2  2.50000E-05  2.54621E+03  1.00000E+01  1.64317E+02  1.01372E+02  2.63042E-03 -2.56000E+00 -1.60418E+00
 DEPL             N2442    EVOL_0   DEPL                        2  2.50000E-05  2.54729E+03  1.00000E+01  1.65385E+02  1.01509E+02  2.66255E-03 -2.56374E+00 -1.58532E+00
 DEPL             N2443    EVOL_0   DEPL                        2  2.50000E-05  2.54837E+03  1.00000E+01  1.66454E+02  1.01636E+02  2.69251E-03 -2.56733E+00 -1.56649E+00
 DEPL             N2444    EVOL_0   DEPL                        2  2.50000E-05  2.54944E+03  1.00000E+01  1.67525E+02  1.01755E+02  2.72031E-03 -2.57077E+00 -1.54771E+00
 DEPL             N2445    EVOL_0   DEPL                        2  2.50000E-05  2.55052E+03  1.00000E+01  1.68596E+02  1.01865E+02  2.74592E-03 -2.57406E+00 -1.52897E+00
 DEPL             N2446    EVOL_0   DEPL                        2  2.50000E-05  2.55160E+03  1.00000E+01  1.69669E+02  1.01967E+02  2.76931E-03 -2.57720E+00 -1.51028E+00
 DEPL             N2447    EVOL_0   DEPL                        2  2.50000E-05  2.55267E+03  1.00000E+01  1.70742E+02  1.02059E+02  2.79048E-03 -2.58019E+00 -1.49163E+00
 DEPL             N2448    EVOL_0   DEPL                        2  2.50000E-05  2.55375E+03  1.00000E+01  1.71815E+02  1.02143E+02  2.80947E-03 -2.58304E+00 -1.47303E+00
 DEPL             N2449    EVOL_0   DEPL                        2  2.50000E-05  2.55483E+03  1.00000E+01  1.72890E+02  1.02218E+02  2.82625E-03 -2.58573E+00 -1.45448E+00
 DEPL             N2450    EVOL_0   DEPL                        2  2.50000E-05  2.55590E+03  1.00000E+01  1.73965E+02  1.02284E+02  2.84079E-03 -2.58828E+00 -1.43597E+00
 DEPL             N2451    EVOL_0   DEPL                        2  2.50000E-05  2.55698E+03  1.00000E+01  1.75040E+02  1.02341E+02  2.85318E-03 -2.59068E+00 -1.41753E+00
 DEPL             N2452    EVOL_0   DEPL                        2  2.50000E-05  2.55806E+03  1.00000E+01  1.76116E+02  1.02390E+02  2.86344E-03 -2.59292E+00 -1.39913E+00
 DEPL             N2453    EVOL_0   DEPL                        2  2.50000E-05  2.55914E+03  1.00000E+01  1.77193E+02  1.02429E+02  2.87148E-03 -2.59502E+00 -1.38079E+00
 DEPL             N2454    EVOL_0   DEPL                        2  2.50000E-05  2.56021E+03  1.00000E+01  1.78269E+02  1.02460E+02  2.87727E-03 -2.59697E+00 -1.36251E+00
[...]
 * PROPA_FISS               :       2.05 :       0.08 :       2.13 :       2.12 *
 * IMPR_TABLE               :       0.02 :       0.00 :       0.02 :       0.01 *
 * RECU_TABLE               :       0.00 :       0.00 :       0.00 :       0.00 *
 * POST_RELEVE_T            :       0.30 :       0.01 :       0.31 :       0.31 *
 * DETRUIRE                 :       0.00 :       0.00 :       0.00 :       0.00 *
 * DETRUIRE                 :       0.01 :       0.00 :       0.01 :       0.00 *
 * DETRUIRE                 :       0.00 :       0.00 :       0.00 :       0.00 *
 * DETRUIRE                 :       0.00 :       0.00 :       0.00 :       0.00 *
 * CALC_G                   :       3.16 :       0.10 :       3.26 :       3.26 *
 * IMPR_TABLE               :       0.00 :       0.00 :       0.00 :       0.00 *
 * IMPR_TABLE               :       0.02 :       0.00 :       0.02 :       0.01 *
 * MODI_MODELE_XFEM         :       0.52 :       0.09 :       0.61 :       0.61 *
 * PROPA_FISS               :       2.17 :       0.07 :       2.24 :       2.24 *
 * PROPA_FISS               :       2.17 :       0.07 :       2.24 :       2.24 *
 * DETRUIRE                 :       0.00 :       0.00 :       0.00 :       0.00 *
 * DETRUIRE                 :       0.00 :       0.00 :       0.00 :       0.01 *
 * DETRUIRE                 :       0.01 :       0.00 :       0.01 :       0.01 *
 * DETRUIRE                 :       0.00 :       0.00 :       0.00 :       0.01 *
 * DETRUIRE                 :       0.01 :       0.00 :       0.01 :       0.00 *
 * DETRUIRE                 :       0.00 :       0.00 :       0.00 :       0.00 *
 * DETRUIRE                 :       0.00 :       0.00 :       0.00 :       0.00 *
 * DETRUIRE                 :       0.00 :       0.00 :       0.00 :       0.01 *
 * MODI_MODELE_XFEM         :       0.69 :       0.07 :       0.76 :       0.75 *
 * DEFI_CONTACT             :       0.08 :       0.01 :       0.09 :       0.10 *
 * AFFE_MATERIAU            :       0.01 :       0.00 :       0.01 :       0.01 *
 * AFFE_CHAR_MECA           :       0.11 :       0.02 :       0.13 :       0.13 *
 * AFFE_CHAR_MECA           :       0.03 :       0.01 :       0.04 :       0.03 *
 * STAT_NON_LINE            :     108.49 :       8.07 :     116.56 :     116.62 *
 * CREA_CHAMP               :       0.01 :       0.00 :       0.01 :       0.01 *
 * CREA_CHAMP               :       0.03 :       0.00 :       0.03 :       0.03 *
 * MODI_MODELE_XFEM         :       0.68 :       0.07 :       0.75 :       0.75 *
 * AFFE_MATERIAU            :       0.01 :       0.00 :       0.01 :       0.01 *
 * AFFE_CHAR_MECA           :       0.12 :       0.01 :       0.13 :       0.13 *
 * AFFE_CHAR_MECA           :       0.03 :       0.01 :       0.04 :       0.04 *
 * DYNA_NON_LINE            :    5062.89 :     115.78 :    5178.67 :    5179.37 *
 * EXTR_RESU                :       0.06 :       0.01 :       0.07 :       0.07 *
 * PROPA_FISS               :       2.11 :       0.06 :       2.17 :       2.17 *
 * IMPR_TABLE               :       0.01 :       0.00 :       0.01 :       0.01 *
 * RECU_TABLE               :       0.00 :       0.00 :       0.00 :       0.00 *
 * POST_RELEVE_T            :       0.32 :       0.01 :       0.33 :       0.32 *
 * DETRUIRE                 :       0.00 :       0.00 :       0.00 :       0.00 *
 * DETRUIRE                 :       0.00 :       0.00 :       0.00 :       0.00 *
 * DETRUIRE                 :       0.00 :       0.00 :       0.00 :       0.00 *
 * DETRUIRE                 :       0.00 :       0.00 :       0.00 :       0.00 *
 * CALC_G                   :       3.22 :       0.09 :       3.31 :       3.33 *
 * IMPR_TABLE               :       0.00 :       0.00 :       0.00 :       0.00 *
 * IMPR_TABLE               :       0.02 :       0.00 :       0.02 :       0.01 *
 * MODI_MODELE_XFEM         :       0.57 :       0.08 :       0.65 :       0.66 *
 * PROPA_FISS               :       2.24 :       0.07 :       2.31 :       2.31 *
 * PROPA_FISS               :       2.21 :       0.08 :       2.29 :       2.30 *
 * DETRUIRE                 :       0.01 :       0.00 :       0.01 :       0.01 *
 * PROPA_FISS               :       2.09 :       0.08 :       2.17 :       2.17 *
 * IMPR_TABLE               :       0.01 :       0.00 :       0.01 :       0.02 *
 * RECU_TABLE               :       0.00 :       0.00 :       0.00 :       0.00 *
 * POST_RELEVE_T            :       0.31 :       0.01 :       0.32 :       0.32 *
 * DETRUIRE                 :       0.00 :       0.00 :       0.00 :       0.00 *
 * DETRUIRE                 :       0.00 :       0.00 :       0.00 :       0.00 *
 * DETRUIRE                 :       0.00 :       0.00 :       0.00 :       0.00 *
 * DETRUIRE                 :       0.00 :       0.00 :       0.00 :       0.01 *
 * CALC_G                   :       3.21 :       0.11 :       3.32 :       3.32 *
 * IMPR_TABLE               :       0.01 :       0.00 :       0.01 :       0.01 *
 * IMPR_TABLE               :       0.01 :       0.00 :       0.01 :       0.01 *
 * MODI_MODELE_XFEM         :       0.55 :       0.08 :       0.63 :       0.62 *
 * PROPA_FISS               :       2.16 :       0.08 :       2.24 :       2.25 *
 * PROPA_FISS               :       2.17 :       0.08 :       2.25 :       2.26 *
 * DETRUIRE                 :       0.01 :       0.00 :       0.01 :       0.01 *
 * DETRUIRE                 :       0.01 :       0.00 :       0.01 :       0.01 *
 * DETRUIRE                 :       0.00 :       0.00 :       0.00 :       0.00 *
 * DETRUIRE                 :       0.01 :       0.00 :       0.01 :       0.01 *
 * DETRUIRE                 :       0.01 :       0.00 :       0.01 :       0.00 *
 * DETRUIRE                 :       0.00 :       0.00 :       0.00 :       0.00 *
 * DETRUIRE                 :       0.00 :       0.00 :       0.00 :       0.00 *
 * DETRUIRE                 :       0.00 :       0.00 :       0.00 :       0.00 *
 * MODI_MODELE_XFEM         :       0.68 :       0.10 :       0.78 :       0.77 *
 * DEFI_CONTACT             :       0.08 :       0.02 :       0.10 :       0.10 *
 * AFFE_MATERIAU            :       0.01 :       0.00 :       0.01 :       0.01 *
 * AFFE_CHAR_MECA           :       0.13 :       0.01 :       0.14 :       0.13 *
 * AFFE_CHAR_MECA           :       0.02 :       0.01 :       0.03 :       0.04 *
 * STAT_NON_LINE            :     110.65 :       6.83 :     117.48 :     117.60 *
 * CREA_CHAMP               :       0.01 :       0.00 :       0.01 :       0.01 *
 * CREA_CHAMP               :       0.03 :       0.00 :       0.03 :       0.03 *
 * MODI_MODELE_XFEM         :       0.68 :       0.09 :       0.77 :       0.77 *
 * AFFE_MATERIAU            :       0.01 :       0.00 :       0.01 :       0.01 *
 * AFFE_CHAR_MECA           :       0.12 :       0.02 :       0.14 :       0.13 *
 * AFFE_CHAR_MECA           :       0.03 :       0.00 :       0.03 :       0.03 *
 * DYNA_NON_LINE            :    6346.95 :     221.40 :    6568.35 :    6570.30 *
 * EXTR_RESU                :       0.06 :       0.01 :       0.07 :       0.07 *
 * PROPA_FISS               :       2.07 :       0.06 :       2.13 :       2.14 *
 * IMPR_TABLE               :       0.01 :       0.00 :       0.01 :       0.03 *
 * RECU_TABLE               :       0.00 :       0.00 :       0.00 :       0.01 *
 * POST_RELEVE_T            :       0.30 :       0.01 :       0.31 :       0.31 *
 * DETRUIRE                 :       0.00 :       0.00 :       0.00 :       0.00 *
 * DETRUIRE                 :       0.00 :       0.00 :       0.00 :       0.00 *
 * DETRUIRE                 :       0.00 :       0.00 :       0.00 :       0.00 *
 * DETRUIRE                 :       0.00 :       0.00 :       0.00 :       0.00 *
 * CALC_G                   :       3.12 :       0.12 :       3.24 :       3.26 *
 * IMPR_TABLE               :       0.00 :       0.00 :       0.00 :       0.00 *
 * IMPR_TABLE               :       0.01 :       0.00 :       0.01 :       0.01 *
 * MODI_MODELE_XFEM         :       0.59 :       0.09 :       0.68 :       0.73 *
 * PROPA_FISS               :       2.19 :       0.08 :       2.27 :       2.26 *
 * PROPA_FISS               :       2.19 :       0.05 :       2.24 :       2.25 *
 * DETRUIRE                 :       0.00 :       0.00 :       0.00 :       0.01 *
 * PROPA_FISS               :       2.08 :       0.05 :       2.13 :       2.13 *
 * IMPR_TABLE               :       0.01 :       0.00 :       0.01 :       0.01 *
 * RECU_TABLE               :       0.00 :       0.00 :       0.00 :       0.01 *
 * POST_RELEVE_T            :       0.32 :       0.00 :       0.32 :       0.31 *
 * DETRUIRE                 :       0.01 :       0.00 :       0.01 :       0.00 *
 * DETRUIRE                 :       0.00 :       0.00 :       0.00 :       0.00 *
 * DETRUIRE                 :       0.00 :       0.00 :       0.00 :       0.00 *
 * DETRUIRE                 :       0.00 :       0.00 :       0.00 :       0.00 *
 * CALC_G                   :       3.13 :       0.11 :       3.24 :       3.25 *
 * IMPR_TABLE               :       0.00 :       0.00 :       0.00 :       0.01 *
 * IMPR_TABLE               :       0.01 :       0.00 :       0.01 :       0.01 *
 * MODI_MODELE_XFEM         :       0.52 :       0.10 :       0.62 :       0.61 *
 * PROPA_FISS               :       2.17 :       0.05 :       2.22 :       2.22 *
 * PROPA_FISS               :       2.15 :       0.07 :       2.22 :       2.20 *
 * DETRUIRE                 :       0.00 :       0.01 :       0.01 :       0.02 *
 * DETRUIRE                 :       0.00 :       0.00 :       0.00 :       0.00 *
 * DETRUIRE                 :       0.01 :       0.00 :       0.01 :       0.01 *
 * DETRUIRE                 :       0.00 :       0.01 :       0.01 :       0.01 *
 * DETRUIRE                 :       0.00 :       0.00 :       0.00 :       0.00 *
 * DETRUIRE                 :       0.00 :       0.00 :       0.00 :       0.00 *
 * DETRUIRE                 :       0.01 :       0.00 :       0.01 :       0.00 *
 * DETRUIRE                 :       0.00 :       0.00 :       0.00 :       0.00 *
 * MODI_MODELE_XFEM         :       0.66 :       0.11 :       0.77 :       0.78 *
 * DEFI_CONTACT             :       0.08 :       0.03 :       0.11 :       0.10 *
 * AFFE_MATERIAU            :       0.01 :       0.00 :       0.01 :       0.01 *
 * AFFE_CHAR_MECA           :       0.12 :       0.01 :       0.13 :       0.13 *
 * AFFE_CHAR_MECA           :       0.02 :       0.02 :       0.04 :       0.04 *
 * STAT_NON_LINE            :     110.30 :       7.97 :     118.27 :     118.87 *
 * CREA_CHAMP               :       0.01 :       0.00 :       0.01 :       0.01 *
 * CREA_CHAMP               :       0.03 :       0.00 :       0.03 :       0.04 *
 * MODI_MODELE_XFEM         :       0.68 :       0.08 :       0.76 :       0.76 *
 * AFFE_MATERIAU            :       0.01 :       0.00 :       0.01 :       0.01 *
 * AFFE_CHAR_MECA           :       0.12 :       0.01 :       0.13 :       0.13 *
 * AFFE_CHAR_MECA           :       0.03 :       0.01 :       0.04 :       0.04 *
 * DYNA_NON_LINE            :    7116.38 :     235.47 :    7351.85 :    7351.93 *
 * EXTR_RESU                :       0.07 :       0.01 :       0.08 :       0.07 *
 * PROPA_FISS               :       2.04 :       0.09 :       2.13 :       2.13 *
 * IMPR_TABLE               :       0.01 :       0.00 :       0.01 :       0.01 *
 * RECU_TABLE               :       0.00 :       0.00 :       0.00 :       0.01 *
 * POST_RELEVE_T            :       0.31 :       0.01 :       0.32 :       0.31 *
 * DETRUIRE                 :       0.00 :       0.00 :       0.00 :       0.00 *
 * DETRUIRE                 :       0.00 :       0.00 :       0.00 :       0.00 *
 * DETRUIRE                 :       0.00 :       0.00 :       0.00 :       0.01 *
 * DETRUIRE                 :       0.00 :       0.00 :       0.00 :       0.00 *
 * CALC_G                   :       3.13 :       0.11 :       3.24 :       3.24 *
 * IMPR_TABLE               :       0.00 :       0.00 :       0.00 :       0.00 *
 * IMPR_TABLE               :       0.01 :       0.00 :       0.01 :       0.02 *
 * MODI_MODELE_XFEM         :       0.59 :       0.06 :       0.65 :       0.66 *
 * PROPA_FISS               :       2.19 :       0.08 :       2.27 :       2.26 *
 * PROPA_FISS               :       2.18 :       0.07 :       2.25 :       2.25 *
 * DETRUIRE                 :       0.00 :       0.01 :       0.01 :       0.01 *
 * PROPA_FISS               :       2.73 :       1.54 :       4.27 :      43.77 *
 * IMPR_TABLE               :       0.01 :       0.00 :       0.01 :       0.01 *
 * RECU_TABLE               :       0.00 :       0.00 :       0.00 :       0.00 *
 * POST_RELEVE_T            :       0.32 :       0.01 :       0.33 :       0.35 *
 * DETRUIRE                 :       0.01 :       0.00 :       0.01 :       0.00 *
 * DETRUIRE                 :       0.00 :       0.00 :       0.00 :       0.00 *
 * DETRUIRE                 :       0.00 :       0.00 :       0.00 :       0.00 *
 * DETRUIRE                 :       0.00 :       0.00 :       0.00 :       0.00 *
 * CALC_G                   :       3.22 :       0.10 :       3.32 :       3.68 *
 * IMPR_TABLE               :       0.00 :       0.00 :       0.00 :       0.00 *
 * IMPR_TABLE               :       0.01 :       0.00 :       0.01 :       0.01 *
 * MODI_MODELE_XFEM         :       0.55 :       0.06 :       0.61 :       0.65 *
 * PROPA_FISS               :       2.13 :       0.06 :       2.19 :       2.20 *
 * PROPA_FISS               :       2.16 :       0.05 :       2.21 :       2.20 *
 * DETRUIRE                 :       0.01 :       0.00 :       0.01 :       0.01 *
 * DETRUIRE                 :       0.00 :       0.00 :       0.00 :       0.01 *
 * DETRUIRE                 :       0.01 :       0.00 :       0.01 :       0.00 *
 * DETRUIRE                 :       0.00 :       0.00 :       0.00 :       0.00 *
 * DETRUIRE                 :       0.00 :       0.00 :       0.00 :       0.00 *
 * DETRUIRE                 :       0.00 :       0.00 :       0.00 :       0.00 *
 * DETRUIRE                 :       0.00 :       0.00 :       0.00 :       0.01 *
 * DETRUIRE                 :       0.00 :       0.00 :       0.00 :       0.00 *
 * MODI_MODELE_XFEM         :       0.70 :       0.10 :       0.80 :       1.08 *
 * DEFI_CONTACT             :       0.08 :       0.02 :       0.10 :       0.10 *
 * AFFE_MATERIAU            :       0.01 :       0.00 :       0.01 :       0.03 *
 * AFFE_CHAR_MECA           :       0.12 :       0.00 :       0.12 :       0.13 *
 * AFFE_CHAR_MECA           :       0.03 :       0.01 :       0.04 :       0.03 *
 * STAT_NON_LINE            :     110.47 :       5.33 :     115.80 :     116.02 *
 * CREA_CHAMP               :       0.01 :       0.00 :       0.01 :       0.01 *
 * CREA_CHAMP               :       0.03 :       0.00 :       0.03 :       0.04 *
 * MODI_MODELE_XFEM         :       0.67 :       0.11 :       0.78 :       0.77 *
 * AFFE_MATERIAU            :       0.01 :       0.00 :       0.01 :       0.01 *
 * AFFE_CHAR_MECA           :       0.12 :       0.02 :       0.14 :       0.12 *
 * AFFE_CHAR_MECA           :       0.02 :       0.00 :       0.02 :       0.04 *
 * DYNA_NON_LINE            :    7805.86 :     190.57 :    7996.43 :    7998.50 *
 * EXTR_RESU                :       0.06 :       0.00 :       0.06 :       0.07 *
 * PROPA_FISS               :       2.05 :       0.10 :       2.15 :       2.14 *
 * IMPR_TABLE               :       0.01 :       0.00 :       0.01 :       0.01 *
 * RECU_TABLE               :       0.00 :       0.00 :       0.00 :       0.00 *
 * POST_RELEVE_T            :       0.31 :       0.00 :       0.31 :       0.31 *
 * DETRUIRE                 :       0.00 :       0.00 :       0.00 :       0.00 *
 * DETRUIRE                 :       0.00 :       0.00 :       0.00 :       0.00 *
 * DETRUIRE                 :       0.01 :       0.00 :       0.01 :       0.00 *
 * DETRUIRE                 :       0.00 :       0.00 :       0.00 :       0.00 *
 * CALC_G                   :       3.10 :       0.54 :       3.64 :       6.30 *
 * IMPR_TABLE               :       0.00 :       0.01 :       0.01 :       0.01 *
 * IMPR_TABLE               :       0.01 :       0.00 :       0.01 :       0.01 *
 * MODI_MODELE_XFEM         :       0.59 :       0.07 :       0.66 :       0.67 *
 * PROPA_FISS               :       2.22 :       0.07 :       2.29 :       2.28 *
 * PROPA_FISS               :       2.27 :       0.04 :       2.31 :       2.82 *
 * DETRUIRE                 :       0.00 :       0.00 :       0.00 :       0.01 *
 * PROPA_FISS               :       2.09 :       0.08 :       2.17 :       2.16 *
 * IMPR_TABLE               :       0.01 :       0.00 :       0.01 :       0.01 *
 * RECU_TABLE               :       0.00 :       0.00 :       0.00 :       0.00 *
 * POST_RELEVE_T            :       0.31 :       0.00 :       0.31 :       0.31 *
 * DETRUIRE                 :       0.00 :       0.00 :       0.00 :       0.00 *
 * DETRUIRE                 :       0.00 :       0.00 :       0.00 :       0.00 *
 * DETRUIRE                 :       0.00 :       0.00 :       0.00 :       0.00 *
 * DETRUIRE                 :       0.00 :       0.00 :       0.00 :       0.00 *
 * CALC_G                   :       3.14 :       0.10 :       3.24 :       3.24 *
 * IMPR_TABLE               :       0.01 :       0.00 :       0.01 :       0.00 *
 * IMPR_TABLE               :       0.01 :       0.00 :       0.01 :       0.01 *
 * MODI_MODELE_XFEM         :       0.54 :       0.06 :       0.60 :       0.60 *
 * PROPA_FISS               :       2.17 :       0.03 :       2.20 :       2.21 *
 * PROPA_FISS               :       2.15 :       0.05 :       2.20 :       2.20 *
 * DETRUIRE                 :       0.01 :       0.00 :       0.01 :       0.01 *
 * DETRUIRE                 :       0.01 :       0.00 :       0.01 :       0.00 *
 * DETRUIRE                 :       0.00 :       0.00 :       0.00 :       0.00 *
 * DETRUIRE                 :       0.00 :       0.00 :       0.00 :       0.00 *
 * DETRUIRE                 :       0.00 :       0.00 :       0.00 :       0.00 *
 * DETRUIRE                 :       0.00 :       0.00 :       0.00 :       0.00 *
 * DETRUIRE                 :       0.00 :       0.00 :       0.00 :       0.00 *
 * DETRUIRE                 :       0.00 :       0.00 :       0.00 :       0.01 *
 * MODI_MODELE_XFEM         :       0.71 :       0.06 :       0.77 :       0.77 *
 * DEFI_CONTACT             :       0.08 :       0.02 :       0.10 :       0.10 *
 * AFFE_MATERIAU            :       0.00 :       0.00 :       0.00 :       0.01 *
 * AFFE_CHAR_MECA           :       0.11 :       0.01 :       0.12 :       0.13 *
 * AFFE_CHAR_MECA           :       0.02 :       0.01 :       0.03 :       0.04 *
 * STAT_NON_LINE            :     110.77 :       5.69 :     116.46 :     116.50 *
 * CREA_CHAMP               :       0.01 :       0.00 :       0.01 :       0.01 *
 * CREA_CHAMP               :       0.03 :       0.00 :       0.03 :       0.03 *
 * MODI_MODELE_XFEM         :       0.72 :       0.07 :       0.79 :       0.79 *
 * AFFE_MATERIAU            :       0.01 :       0.00 :       0.01 :       0.00 *
 * AFFE_CHAR_MECA           :       0.12 :       0.01 :       0.13 :       0.13 *
 *  . part Superviseur      :       2.81 :       0.19 :       3.00 :       3.71 *
 *  . part Fortran          :   37799.41 :    1248.21 :   39047.62 :   39141.88 *
 * > 500 commandes...       :  309559.94 :    9264.20 :  318824.14 :  319866.55 *
 ********************************************************************************
 * TOTAL_JOB                :  347362.16 :   10512.60 :  357874.76 :  359011.76 *
 ********************************************************************************

